13   
Frame written by nebterpolator, Wed Mar  2 11:45:02 2022
C        1.6724632058    0.3311160337   -0.3250581421
C        1.0799246500   -0.8827735733   -0.3043633466
C       -0.3513940272   -1.0536564506   -0.0024302983
C       -1.1382218189    0.3660142204    0.1145343891
C       -0.2937296476    1.5327570016   -0.2046341556
N        0.9889836982    1.5484623459   -0.3224042151
H        2.7439088975    0.4214526934   -0.4842405892
H        1.6596517633   -1.7760802000   -0.5235045788
H       -0.8555977654   -1.9047507362   -0.4640319070
H       -2.1712900106    0.4414158576   -0.2307127162
H       -0.8220975223    2.4664347263   -0.4127188969
C       -0.8868972542   -0.5249655330    1.2503662136
H       -1.6257041688   -0.9654263854    1.9091982433
13   
Frame written by nebterpolator, Wed Mar  2 11:45:02 2022
C        1.6621965927    0.3247286918   -0.2834419060
C        1.0513637082   -0.8946370792   -0.3513663937
C       -0.3494969843   -1.0472772378   -0.1033026627
C       -1.1414196573    0.3392429078    0.0984837407
C       -0.3188516009    1.5079176778   -0.2270825335
N        0.9892874746    1.5284365074   -0.2983845295
H        2.7486674546    0.4087902758   -0.3728881063
H        1.6520300955   -1.7943170457   -0.5502128426
H       -0.8910105200   -1.8964631888   -0.5478139171
H       -2.1864549937    0.3692994492   -0.2461440724
H       -0.8450274958    2.4575932382   -0.4083859714
C       -0.8505337520   -0.3894855555    1.3055990249
H       -1.5207503215   -0.9138286409    1.9849401695
13   
Frame written by nebterpolator, Wed Mar  2 11:45:02 2022
C        1.6493569885    0.3091700772   -0.2477852629
C        1.0413468665   -0.9093951728   -0.3873521041
C       -0.3625450563   -1.0440578872   -0.2062219019
C       -1.1482863970    0.3181296144    0.0894118962
C       -0.3415301655    1.4873815804   -0.2557964213
N        0.9735405978    1.5073501460   -0.2825236904
H        2.7408958898    0.3944937683   -0.2654692326
H        1.6559903341   -1.8069166177   -0.5563485757
H       -0.9358274228   -1.8796828809   -0.6398581197
H       -2.1983318339    0.3027240356   -0.2453651500
H       -0.8553367264    2.4519284242   -0.4099727131
C       -0.8183166940   -0.2438493681    1.3734573419
H       -1.4009563806   -0.8872757195    2.0338239335
13   
Frame written by nebterpolator, Wed Mar  2 11:45:02 2022
C        1.6243031425    0.2990838806   -0.2091907213
C        1.0139277381   -0.9325941966   -0.4042766052
C       -0.3634226865   -1.0532089905   -0.3047934465
C       -1.1597742687    0.3091927348    0.0825231667
C       -0.3611256529    1.4766797490   -0.2811508479
N        0.9576511332    1.4871105253   -0.2609141135
H        2.7164440281    0.3819053981   -0.1644511385
H        1.6451555788   -1.8246036749   -0.5567315256
H       -0.9592698879   -1.8728077933   -0.7395970877
H       -2.2096223983    0.2467089200   -0.2431193705
H       -0.8563087928    2.4544837398   -0.4237347648
C       -0.7987885178   -0.1060055051    1.4324638816
H       -1.2491694157   -0.8659447872    2.0729725731
13   
Frame written by nebterpolator, Wed Mar  2 11:45:02 2022
C        1.5934854062    0.2763693771   -0.1709544842
C        0.9990766392   -0.9531992895   -0.4198114238
C       -0.3737466635   -1.0758804645   -0.3954261669
C       -1.1765555054    0.2967800485    0.0787199117
C       -0.3781580963    1.4826152067   -0.2922564721
N        0.9363202683    1.4738345661   -0.2329204550
H        2.6825193285    0.3581670715   -0.0572019704
H        1.6475970041   -1.8359253608   -0.5627980858
H       -0.9809829434   -1.8815706646   -0.8367225993
H       -2.2243472276    0.1888461197   -0.2332173465
H       -0.8600325412    2.4665560679   -0.4397198031
C       -0.7827139337    0.0090141677    1.4470090731
H       -1.0824617352   -0.8056068459    2.1152998223
13   
Frame written by nebterpolator, Wed Mar  2 11:45:02 2022
C        1.5593962326    0.2547703125   -0.1237586518
C        0.9835704381   -0.9877174475   -0.4397246975
C       -0.3780047861   -1.1176969551   -0.4817877526
C       -1.1874000723    0.2950455846    0.0828061645
C       -0.4011388551    1.4999924451   -0.3028115368
N        0.9111431683    1.4701778019   -0.2117366482
H        2.6387846798    0.3345391379    0.0599871386
H        1.6521794678   -1.8540801998   -0.5782683351
H       -0.9917679046   -1.9109604909   -0.9305170249
H       -2.2355292776    0.1384907803   -0.2028750452
H       -0.8726586368    2.4867395747   -0.4556774350
C       -0.7420192268    0.1056386854    1.4385122593
H       -0.9365552272   -0.7149392291    2.1458515648
13   
Frame written by nebterpolator, Wed Mar  2 11:45:02 2022
C        1.5146022449    0.2307219453   -0.0659532003
C        0.9698399120   -1.0240914864   -0.4601398544
C       -0.3795231395   -1.1701050300   -0.5626865086
C       -1.1949009723    0.3115167548    0.0972919110
C       -0.4253968165    1.5234936232   -0.3212318383
N        0.8844330954    1.4685426514   -0.2023331189
H        2.5799290068    0.3073027528    0.1859564023
H        1.6630699365   -1.8671430718   -0.6064947781
H       -0.9900317476   -1.9609966477   -1.0164264219
H       -2.2439103779    0.1084016893   -0.1543093882
H       -0.8838328975    2.5138296159   -0.4832520165
C       -0.6831113822    0.1850144248    1.4259499909
H       -0.8111668620   -0.6264872217    2.1636288209
13   
Frame written by nebterpolator, Wed Mar  2 11:45:02 2022
C        1.4614622018    0.2234187324    0.0036989608
C        0.9537981618   -1.0664591203   -0.4867859598
C       -0.3854021409   -1.2343480026   -0.6362815188
C       -1.1992331901    0.3450241853    0.1203808015
C       -0.4426476141    1.5470774983   -0.3485111577
N        0.8686160475    1.4667276075   -0.2010975867
H        2.5077137297    0.2928958674    0.3184326956
H        1.6760672874   -1.8755269027   -0.6519100927
H       -0.9812984361   -2.0369989163   -1.0801665204
H       -2.2503936546    0.1122529593   -0.0944351651
H       -0.8865007898    2.5405139267   -0.5309483374
C       -0.6167884926    0.2404775687    1.4128266000
H       -0.7053931098   -0.5550554036    2.1747972806
13   
Frame written by nebterpolator, Wed Mar  2 11:45:02 2022
C        1.3943260591    0.2116148460    0.0740512429
C        0.9400992151   -1.0972402675   -0.5095446822
C       -0.3842810826   -1.3011776027   -0.6995754977
C       -1.2027007723    0.3966946329    0.1512842016
C       -0.4526420683    1.5717760018   -0.3786101829
N        0.8573929126    1.4615448316   -0.2158612581
H        2.4226025815    0.2724289359    0.4421508964
H        1.6978464717   -1.8627721276   -0.7070636882
H       -0.9496442671   -2.1366762873   -1.1186531469
H       -2.2593047127    0.1575605129   -0.0299098206
H       -0.8786013485    2.5680638839   -0.5884598722
C       -0.5536469262    0.2683512563    1.4003630059
H       -0.6314460623   -0.5101686163    2.1798288020
13   
Frame written by nebterpolator, Wed Mar  2 11:45:02 2022
C        1.3173124920    0.1692788421    0.1270869267
C        0.9448750378   -1.1006874171   -0.5162104390
C       -0.3730780946   -1.3635008764   -0.7444556698
C       -1.2077689986    0.4607154607    0.1850155958
C       -0.4612218965    1.5996034571   -0.4014727791
N        0.8435441153    1.4494976026   -0.2580353190
H        2.3314397527    0.2282405286    0.5405861931
H        1.7421968468   -1.8146047803   -0.7571928130
H       -0.8908952117   -2.2471900953   -1.1350590154
H       -2.2747271001    0.2420649799    0.0368464726
H       -0.8664661713    2.5986715350   -0.6329324896
C       -0.4997849915    0.2625581879    1.3765167962
H       -0.6054257801   -0.4846474250    2.1793065405
13   
Frame written by nebterpolator, Wed Mar  2 11:45:02 2022
C        1.2575861754    0.1365403700    0.1657241749
C        0.9732836451   -1.1113314573   -0.5334804535
C       -0.3800350512   -1.4439879268   -0.7686189599
C       -1.2030380914    0.5086585846    0.2036632203
C       -0.4580288331    1.6392271272   -0.3953886391
N        0.8398814984    1.4464472765   -0.3088548054
H        2.2499224635    0.1993408770    0.6273274988
H        1.7990764376   -1.7665645397   -0.8050104316
H       -0.8514976654   -2.3630219247   -1.1221791331
H       -2.2852476298    0.3387564198    0.0987392392
H       -0.8785432443    2.6203339651   -0.6543535571
C       -0.4522776095    0.2128371507    1.3009725963
H       -0.6110820954   -0.4172359223    2.1914592501
13   
Frame written by nebterpolator, Wed Mar  2 11:45:02 2022
C        1.1837096846    0.1277924936    0.2023211082
C        0.9534967320   -1.1244202216   -0.5438478872
C       -0.3432033086   -1.5318070848   -0.7749857333
C       -1.2163971826    0.5770209797    0.2329325261
C       -0.4478845870    1.6590007112   -0.4131286159
N        0.8423756180    1.4249762846   -0.3419040370
H        2.1628465330    0.1827595138    0.6962903364
H        1.8186328029   -1.7095537645   -0.8600699503
H       -0.7570068016   -2.4849684948   -1.1153419149
H       -2.3060878826    0.4611777929    0.1527979060
H       -0.8436163516    2.6415513880   -0.7024812278
C       -0.4448753949    0.1898865880    1.2797409947
H       -0.6019898616   -0.4134161862    2.1876764947
13   
Frame written by nebterpolator, Wed Mar  2 11:45:02 2022
C        1.1176545140    0.1180309744    0.2278637239
C        0.9446782500   -1.1347192046   -0.5487756576
C       -0.3081683734   -1.6239035083   -0.7695597601
C       -1.2299916259    0.6504262276    0.2658564296
C       -0.4368434732    1.6747466706   -0.4280129403
N        0.8442368426    1.3977239955   -0.3794724247
H        2.0818497830    0.1712143808    0.7515391682
H        1.8411961831   -1.6451926311   -0.9082016497
H       -0.6644645198   -2.6021404625   -1.1044919733
H       -2.3240440912    0.5970080961    0.2158616189
H       -0.8094212122    2.6555615376   -0.7522311180
C       -0.4468029945    0.1660513296    1.2575464829
H       -0.6098792825   -0.4248074058    2.1720781001
13   
Frame written by nebterpolator, Wed Mar  2 11:45:02 2022
C        1.0570183849    0.1071601353    0.2446789450
C        0.9424292049   -1.1456526811   -0.5499957792
C       -0.2696191051   -1.7194475977   -0.7524701124
C       -1.2422118702    0.7264088383    0.3000482160
C       -0.4268078746    1.6885695907   -0.4407239519
N        0.8430647828    1.3674091852   -0.4183695639
H        2.0053091171    0.1637951126    0.7963955144
H        1.8617428455   -1.5787315209   -0.9518253567
H       -0.5719625463   -2.7140769309   -1.0909747776
H       -2.3364361494    0.7375209505    0.2851523882
H       -0.7767034045    2.6659067493   -0.7998036258
C       -0.4557227879    0.1450638375    1.2320667757
H       -0.6301005971   -0.4439256687    2.1458213283
13   
Frame written by nebterpolator, Wed Mar  2 11:45:02 2022
C        1.0004681976    0.0947989299    0.2545111415
C        0.9446851902   -1.1574287117   -0.5485281460
C       -0.2258680343   -1.8172194647   -0.7253054180
C       -1.2520191186    0.8035149675    0.3349437181
C       -0.4181999592    1.7021081407   -0.4514839470
N        0.8381973485    1.3357407342   -0.4575554155
H        1.9321088617    0.1591774575    0.8332059470
H        1.8781130852   -1.5127443510   -0.9920203523
H       -0.4790449587   -2.8209013166   -1.0754686491
H       -2.3418588262    0.8785303994    0.3596979963
H       -0.7464651237    2.6742400168   -0.8447038505
C       -0.4701149755    0.1277996913    1.2029738748
H       -0.6600016873   -0.4676164934    2.1097331008
13   
Frame written by nebterpolator, Wed Mar  2 11:45:02 2022
C        0.9469827653    0.0815373818    0.2590601294
C        0.9475671512   -1.1705758499   -0.5452827679
C       -0.1744887283   -1.9157935859   -0.6902179486
C       -1.2585706351    0.8806005457    0.3703818664
C       -0.4110388814    1.7165618218   -0.4600636211
N        0.8295516495    1.3042107773   -0.4961956679
H        1.8616533690    0.1563261616    0.8633484464
H        1.8872399112   -1.4500354318   -1.0293341832
H       -0.3829565212   -2.9226894496   -1.0589655126
H       -2.3394760105    1.0171692953    0.4386444610
H       -0.7197625575    2.6813317441   -0.8870733062
C       -0.4887347615    0.1149586606    1.1709624109
H       -0.6979667507   -0.4936020709    2.0647356933
13   
Frame written by nebterpolator, Wed Mar  2 11:45:02 2022
C        0.8954828900    0.0677163215    0.2594246724
C        0.9499899644   -1.1849622245   -0.5410002307
C       -0.1158109266   -2.0136156542   -0.6490582347
C       -1.2615948493    0.9565416028    0.4060872860
C       -0.4050030615    1.7326022103   -0.4663197647
N        0.8171336876    1.2733470980   -0.5342582599
H        1.7931472135    0.1547597412    0.8878631737
H        1.8888720399   -1.3923058937   -1.0638228277
H       -0.2831658778   -3.0193395947   -1.0410668336
H       -2.3290020811    1.1518800002    0.5214659675
H       -0.6967164756    2.6878303581   -0.9267858537
C       -0.5106931723    0.1062102733    1.1362244440
H       -0.7426393512   -0.5206642384    2.0112464615
13   
Frame written by nebterpolator, Wed Mar  2 11:45:02 2022
C        0.8446011543    0.0540330425    0.2562867176
C        0.9506555928   -1.2016072603   -0.5370802451
C       -0.0493679546   -2.1088284914   -0.6046533887
C       -1.2614844747    1.0292063953    0.4423600116
C       -0.3992176972    1.7511261120   -0.4698406474
N        0.8001472232    1.2440868872   -0.5718641461
H        1.7250332561    0.1543366090    0.9066793635
H        1.8821054656   -1.3418319011   -1.0948542507
H       -0.1770058046   -3.1097348395   -1.0197548442
H       -2.3093586116    1.2797108218    0.6076203944
H       -0.6760021411    2.6945402585   -0.9621903252
C       -0.5363231557    0.1018116158    1.0986503376
H       -0.7937828526   -0.5468492497    1.9486410226
13   
Frame written by nebterpolator, Wed Mar  2 11:45:02 2022
C        0.7928442261    0.0408497499    0.2501867845
C        0.9485485770   -1.2211269191   -0.5344401019
C        0.0240424909   -2.1992641637   -0.5596673118
C       -1.2595138075    1.0969034214    0.4782570648
C       -0.3931933736    1.7720707300   -0.4710967372
N        0.7781759716    1.2169222286   -0.6090494665
H        1.6561661083    0.1547227118    0.9202873195
H        1.8673890042   -1.2996272383   -1.1226906149
H       -0.0623290534   -3.1940231677   -0.9916183246
H       -2.2817023878    1.3984577996    0.6949740203
H       -0.6549438731    2.7034897982   -0.9905327750
C       -0.5654047383    0.1012419294    1.0581740794
H       -0.8500791446   -0.5706168801    1.8772160635
13   
Frame written by nebterpolator, Wed Mar  2 11:45:02 2022
C        0.7383992526    0.0278228029    0.2415890858
C        0.9424593575   -1.2441116610   -0.5331519598
C        0.1039168539   -2.2821247398   -0.5144423339
C       -1.2576126290    1.1586446753    0.5112327485
C       -0.3867852240    1.7946640372   -0.4713461711
N        0.7507119410    1.1922281492   -0.6458749927
H        1.5863671608    0.1553766148    0.9301349204
H        1.8454328295   -1.2658458658   -1.1493866579
H        0.0627603707   -3.2727790012   -0.9528910517
H       -2.2498432175    1.5067342023    0.7794083592
H       -0.6299764605    2.7174320218   -1.0084478516
C       -0.5969733035    0.1029385670    1.0150238015
H       -0.9088569315   -0.5909798025    1.7981521034
13   
Frame written by nebterpolator, Wed Mar  2 11:45:02 2022
C        0.6794932035    0.0144240190    0.2321469517
C        0.9304567703   -1.2724682887   -0.5330090826
C        0.1911154346   -2.3546395192   -0.4683022134
C       -1.2572294994    1.2143311063    0.5405674660
C       -0.3786992246    1.8184713748   -0.4713333856
N        0.7164711862    1.1710855053   -0.6827314752
H        1.5162539795    0.1560052870    0.9385112812
H        1.8165232724   -1.2402044904   -1.1777485029
H        0.1992773583   -3.3452882561   -0.9050278366
H       -2.2180095764    1.6040645940    0.8573073022
H       -0.5987792004    2.7359365341   -1.0161797555
C       -0.6297044689    0.1053717032    0.9713323152
H       -0.9671692353   -0.6070895693    1.7144669356
