13   
Frame written by nebterpolator, Fri Mar  4 17:27:37 2022
C        1.6788940560    0.4831173748   -0.3254226191
C        1.1472680733   -0.8115037871   -0.4356721793
C       -0.3414768064   -0.7023947536   -0.4748746117
C       -1.2147508122    0.6013225828    0.9533003207
C       -0.5218949549    0.8645749668   -0.3840361394
N        0.7983363325    1.4779555792   -0.2909041369
H        2.7415504446    0.7077504902   -0.2444427556
H        1.7213677897   -1.7315588368   -0.4442419245
H       -0.8250289056   -1.2467896183   -1.2965906657
H       -1.6238300798    1.2813387197    1.6943853014
H       -1.1308946656    1.3566780121   -1.1523330968
C       -1.0770375642   -0.7266828719    0.8758334228
H       -1.3525029078   -1.5538078583    1.5249990846
13   
Frame written by nebterpolator, Fri Mar  4 17:27:37 2022
C        1.6728654495    0.4842966774   -0.3308315357
C        1.1599924962   -0.8124832910   -0.4268428027
C       -0.3337233949   -0.7571126033   -0.4858422060
C       -1.2065178587    0.5990806806    0.9432393813
C       -0.5530310457    0.9148066068   -0.3803413051
N        0.8074949476    1.4962981026   -0.3769183304
H        2.7445549622    0.7042079630   -0.2448570291
H        1.7537677625   -1.7217145313   -0.3337114637
H       -0.7933947736   -1.2540750601   -1.3481649821
H       -1.5094951927    1.2674971414    1.7482750687
H       -1.2061678363    1.3968466361   -1.1222604765
C       -1.1300395491   -0.7458542716    0.8452112164
H       -1.4063059671   -1.5717940507    1.5130444648
13   
Frame written by nebterpolator, Fri Mar  4 17:27:37 2022
C        1.6628492821    0.4839322162   -0.3365303538
C        1.1674961006   -0.8150590742   -0.4167545622
C       -0.3159747633   -0.8155954326   -0.4970030314
C       -1.1984265689    0.5934792794    0.9363661984
C       -0.5801859728    0.9695050196   -0.3756018881
N        0.8129086899    1.5099957028   -0.4661177665
H        2.7412734599    0.6991205672   -0.2487525955
H        1.7774839963   -1.7056386246   -0.2245974686
H       -0.7526152720   -1.2622132774   -1.3994442884
H       -1.3967873006    1.2397310794    1.7969004060
H       -1.2753431948    1.4412124225   -1.0887278130
C       -1.1810655460   -0.7595198182    0.8188317170
H       -1.4616129104   -1.5789500601    1.5014314461
13   
Frame written by nebterpolator, Fri Mar  4 17:27:37 2022
C        1.6485683268    0.4846867723   -0.3434762880
C        1.1694908272   -0.8242592429   -0.4049433601
C       -0.2909289613   -0.8853345147   -0.5064508237
C       -1.1896544988    0.5860548125    0.9294088003
C       -0.6028124598    1.0336210523   -0.3671677432
N        0.8149287237    1.5164560856   -0.5555266936
H        2.7307448277    0.6968791417   -0.2559239265
H        1.7930817313   -1.6854442835   -0.1216435880
H       -0.7052131351   -1.2770870963   -1.4454248062
H       -1.2908431189    1.1977794719    1.8342863928
H       -1.3348388805    1.4990291212   -1.0482827319
C       -1.2261876792   -0.7677870232    0.7944968761
H       -1.5163357032   -1.5745942969    1.4906478922
13   
Frame written by nebterpolator, Fri Mar  4 17:27:37 2022
C        1.6323974840    0.4946107468   -0.3507350012
C        1.1686678264   -0.8491069285   -0.3929135920
C       -0.2699676371   -0.9751288258   -0.5112765134
C       -1.1795986573    0.5795785584    0.9150686891
C       -0.6195975222    1.1104499747   -0.3514947930
N        0.8176083094    1.5136668083   -0.6358521062
H        2.7137180762    0.7086019082   -0.2665300975
H        1.8063970517   -1.6711636400   -0.0329288209
H       -0.6638176521   -1.3139580122   -1.4789743282
H       -1.2038323202    1.1491200460    1.8550500767
H       -1.3784747709    1.5852860061   -0.9960826607
C       -1.2594303083   -0.7726612057    0.7666142574
H       -1.5640698796   -1.5592954363    1.4800548901
13   
Frame written by nebterpolator, Fri Mar  4 17:27:37 2022
C        1.6167492162    0.5006019079   -0.3580801471
C        1.1782898704   -0.8799602119   -0.3828981126
C       -0.2657633914   -1.0759308792   -0.5077832044
C       -1.1713071746    0.5772543158    0.8896935996
C       -0.6273960987    1.1958856262   -0.3282003689
N        0.8139855485    1.4994376966   -0.6929437604
H        2.6927005761    0.7253892253   -0.2830361484
H        1.8329275486   -1.6614792145    0.0247549419
H       -0.6446848509   -1.3893022636   -1.4874361133
H       -1.1629542551    1.1063676423    1.8558007013
H       -1.3951980062    1.7091489653   -0.9297996558
C       -1.2727657064   -0.7736496789    0.7325069350
H       -1.5945832765   -1.5337631314    1.4674213331
13   
Frame written by nebterpolator, Fri Mar  4 17:27:37 2022
C        1.5953846266    0.4645713547   -0.3718038465
C        1.1895266541   -0.8790176695   -0.3726621209
C       -0.2545592310   -1.1519419321   -0.4895937035
C       -1.1716333253    0.5819265466    0.8615103691
C       -0.6255397048    1.2784684224   -0.3031063721
N        0.7841251637    1.4849099143   -0.7144229210
H        2.6717443423    0.7024759283   -0.3070683418
H        1.8744685227   -1.6412575697    0.0263805032
H       -0.6262381621   -1.4977833185   -1.4612646723
H       -1.1915016839    1.0837801163    1.8417902038
H       -1.3834225708    1.8475367120   -0.8631272261
C       -1.2585415869   -0.7685467938    0.7015234552
H       -1.6038130445   -1.5051217108    1.4518446728
13   
Frame written by nebterpolator, Fri Mar  4 17:27:37 2022
C        1.5760807917    0.4394510600   -0.3849648221
C        1.1868764323   -0.8798772480   -0.3685685038
C       -0.2404796175   -1.2104797178   -0.4630670440
C       -1.1719262479    0.5885704397    0.8340515727
C       -0.6114717102    1.3448994981   -0.2783676514
N        0.7595745186    1.4789840166   -0.7102541917
H        2.6535600066    0.6843991605   -0.3350205569
H        1.9048405176   -1.6350033924   -0.0108010035
H       -0.6116640112   -1.6204531536   -1.4095468167
H       -1.2610348387    1.0748099379    1.8165713643
H       -1.3476037420    1.9746416342   -0.7989674355
C       -1.2296457897   -0.7625793592    0.6759705172
H       -1.6071063096   -1.4773628760    1.4329645712
13   
Frame written by nebterpolator, Fri Mar  4 17:27:37 2022
C        1.5629439991    0.4303457261   -0.3965076956
C        1.1827916642   -0.8871438281   -0.3704219175
C       -0.2343298882   -1.2585948132   -0.4335764633
C       -1.1699072253    0.5949307871    0.8078163186
C       -0.5906361646    1.3967795320   -0.2536993539
N        0.7460159338    1.4773620847   -0.6961436818
H        2.6393816258    0.6791561281   -0.3650822433
H        1.9280800751   -1.6376504462   -0.0641386396
H       -0.6071181233   -1.7444027310   -1.3404382036
H       -1.3469001748    1.0702609074    1.7819912192
H       -1.2986761334    2.0878308843   -0.7327113770
C       -1.1986965434   -0.7573665026    0.6529826241
H       -1.6129490450   -1.4515077285    1.4099294137
13   
Frame written by nebterpolator, Fri Mar  4 17:27:37 2022
C        1.5526678177    0.4243930700   -0.4092466325
C        1.1775873362   -0.8924798270   -0.3754946562
C       -0.2277021965   -1.2957724991   -0.4021394825
C       -1.1679615784    0.6012238537    0.7844916482
C       -0.5674154552    1.4393811150   -0.2289295419
N        0.7368830409    1.4798811576   -0.6772594259
H        2.6284623947    0.6739301495   -0.3978381925
H        1.9458439538   -1.6409529138   -0.1278469024
H       -0.6006059278   -1.8635759418   -1.2579541477
H       -1.4409913140    1.0671717369    1.7395011657
H       -1.2448394354    2.1873377962   -0.6647430106
C       -1.1684812487   -0.7523000870    0.6339366862
H       -1.6234473870   -1.4282376101    1.3835224920
13   
Frame written by nebterpolator, Fri Mar  4 17:27:37 2022
C        1.5443342031    0.4202289109   -0.4237810555
C        1.1713276808   -0.8960548775   -0.3831741557
C       -0.2182204127   -1.3246836854   -0.3696150810
C       -1.1673690941    0.6074515755    0.7638865887
C       -0.5438260924    1.4753415136   -0.2032903942
N        0.7318710321    1.4860763025   -0.6557156270
H        2.6201433235    0.6673501364   -0.4340564625
H        1.9580802148   -1.6436328151   -0.1980843050
H       -0.5877230545   -1.9758661360   -1.1641616943
H       -1.5380919183    1.0639643905    1.6892751979
H       -1.1896907564    2.2746651953   -0.5941520869
C       -1.1410652835   -0.7473586331    0.6188827313
H       -1.6397698422   -1.4074818775    1.3539863444
13   
Frame written by nebterpolator, Fri Mar  4 17:27:37 2022
C        1.5376354379    0.4175653143   -0.4402382724
C        1.1647697374   -0.8985200495   -0.3931149645
C       -0.2054046949   -1.3477323217   -0.3364626242
C       -1.1694261170    0.6136502056    0.7450686115
C       -0.5213619078    1.5061881343   -0.1761020138
N        0.7313519265    1.4951535290   -0.6325137871
H        2.6138740173    0.6594005458   -0.4746118480
H        1.9654044468   -1.6452247817   -0.2716906257
H       -0.5665115927   -2.0799546253   -1.0607010295
H       -1.6342611037    1.0600141439    1.6319170130
H       -1.1355823331    2.3511496892   -0.5200732309
C       -1.1182438356   -0.7425754438    0.6071665997
H       -1.6622439813   -1.3891143401    1.3213561719
13   
Frame written by nebterpolator, Fri Mar  4 17:27:37 2022
C        1.5329698599    0.4162310577   -0.4583686193
C        1.1599187144   -0.9000100603   -0.4050702646
C       -0.1911116501   -1.3669470132   -0.3027880154
C       -1.1751123260    0.6198290313    0.7263818004
C       -0.5012821577    1.5326621072   -0.1469756166
N        0.7361402938    1.5056564383   -0.6084086161
H        2.6093637913    0.6506949209   -0.5196550263
H        1.9697600918   -1.6452781069   -0.3460418124
H       -0.5381713171   -2.1754656072   -0.9489862450
H       -1.7268067946    1.0553731809    1.5686776946
H       -1.0839385311    2.4182342620   -0.4416490276
C       -1.1014883875   -0.7381255478    0.5970979398
H       -1.6902415871   -1.3728546628    1.2857858085
13   
Frame written by nebterpolator, Fri Mar  4 17:27:37 2022
C        1.5302579465    0.4159669024   -0.4779122562
C        1.1576058328   -0.9007843064   -0.4187420416
C       -0.1759540403   -1.3832784771   -0.2682982588
C       -1.1848248922    0.6258634951    0.7063823546
C       -0.4838520620    1.5549008292   -0.1158655286
N        0.7459126537    1.5169302676   -0.5829425421
H        2.6058772392    0.6417219131   -0.5699655128
H        1.9718998622   -1.6438692206   -0.4192105587
H       -0.5029515068   -2.2608467388   -0.8296979669
H       -1.8135831568    1.0504171244    1.5002917362
H       -1.0355138200    2.4758673947   -0.3585441869
C       -1.0917013894   -0.7341581671    0.5874216310
H       -1.7231726670   -1.3587310165    1.2470831310
13   
Frame written by nebterpolator, Fri Mar  4 17:27:37 2022
C        1.5285359842    0.4162758797   -0.4985205340
C        1.1570598284   -0.9013458687   -0.4333495746
C       -0.1595764415   -1.3973240953   -0.2327077568
C       -1.1976323592    0.6315346644    0.6841757432
C       -0.4681992321    1.5734094146   -0.0832036450
N        0.7586818601    1.5286838419   -0.5552704971
H        2.6019360610    0.6329421492   -0.6257808397
H        1.9717842572   -1.6416781025   -0.4895199746
H       -0.4614216702   -2.3351350947   -0.7043516229
H       -1.8935596021    1.0456021428    1.4277564510
H       -0.9900770101    2.5244902872   -0.2715411379
C       -1.0880239853   -0.7307418944    0.5771287747
H       -1.7595076904   -1.3467133243    1.2051846137
13   
Frame written by nebterpolator, Fri Mar  4 17:27:37 2022
C        1.5264946046    0.4167421992   -0.5202805524
C        1.1570186639   -0.9021147234   -0.4478059533
C       -0.1415936153   -1.4092235835   -0.1960298391
C       -1.2120308556    0.6369887089    0.6594333686
C       -0.4533980265    1.5885682475   -0.0491667423
N        0.7723047956    1.5406002169   -0.5251599047
H        2.5956647986    0.6248272905   -0.6873829491
H        1.9689860968   -1.6393815545   -0.5545909416
H       -0.4137697208   -2.3970388406   -0.5738085450
H       -1.9656252755    1.0415278405    1.3517984920
H       -0.9469820209    2.5641476189   -0.1809899419
C       -1.0893229061   -0.7283553450    0.5648653211
H       -1.7977465387   -1.3372880754    1.1591181878
13   
Frame written by nebterpolator, Fri Mar  4 17:27:37 2022
C        1.5233473904    0.4174721566   -0.5439724683
C        1.1571117010   -0.9028818946   -0.4608570844
C       -0.1235446273   -1.4192036532   -0.1588992126
C       -1.2266420149    0.6424414925    0.6329978530
C       -0.4394055605    1.6007995615   -0.0137719775
N        0.7862636136    1.5515148742   -0.4953224308
H        2.5857885782    0.6178989584   -0.7539739765
H        1.9643021629   -1.6370896861   -0.6114881523
H       -0.3609552774   -2.4467351209   -0.4388508452
H       -2.0293438121    1.0385233573    1.2744521958
H       -0.9051006814    2.5957771700   -0.0864840690
C       -1.0948538825   -0.7276504321    0.5487523719
H       -1.8369675901   -1.3308667836    1.1074177960
13   
Frame written by nebterpolator, Fri Mar  4 17:27:37 2022
C        1.5187512176    0.4187383796   -0.5696035984
C        1.1574274747   -0.9036524628   -0.4712463170
C       -0.1062346339   -1.4280965268   -0.1195220410
C       -1.2411036181    0.6480327637    0.6067642152
C       -0.4257382902    1.6108619758    0.0230493495
N        0.8005231661    1.5608957149   -0.4675460449
H        2.5709592441    0.6122542401   -0.8257649956
H        1.9579155566   -1.6346291327   -0.6602052668
H       -0.3033318592   -2.4843746807   -0.3025344777
H       -2.0857103575    1.0369173712    1.1964749407
H       -0.8626688027    2.6204437861    0.0104128978
C       -1.1039420203   -0.7296026081    0.5298823996
H       -1.8768470773   -1.3277888204    1.0498389386
13   
Frame written by nebterpolator, Fri Mar  4 17:27:37 2022
C        1.5132402779    0.4204936556   -0.5957246500
C        1.1583187249   -0.9042791604   -0.4786250745
C       -0.0893946748   -1.4365439306   -0.0745282678
C       -1.2559912464    0.6542226215    0.5821084010
C       -0.4122625699    1.6197979517    0.0618086020
N        0.8163121130    1.5690538525   -0.4404530096
H        2.5510192606    0.6072334171   -0.9025172599
H        1.9490553839   -1.6318392937   -0.7051237172
H       -0.2420795259   -2.5120256614   -0.1691026045
H       -2.1375948900    1.0369725452    1.1158284272
H       -0.8193139405    2.6399982646    0.1057838293
C       -1.1150795564   -0.7349956798    0.5121883049
H       -1.9162293563   -1.3280885824    0.9883570190
13   
Frame written by nebterpolator, Fri Mar  4 17:27:37 2022
C        1.5080220985    0.4228143842   -0.6211543724
C        1.1606091953   -0.9049265507   -0.4830405820
C       -0.0737346538   -1.4455294540   -0.0214846112
C       -1.2724948321    0.6618575710    0.5601985804
C       -0.3997053136    1.6289363849    0.1027134178
N        0.8352483606    1.5768459061   -0.4129678078
H        2.5258045646    0.6021812268   -0.9834070923
H        1.9362959027   -1.6281241510   -0.7494416324
H       -0.1780051975   -2.5305755955   -0.0410434572
H       -2.1859946749    1.0387303100    1.0302859714
H       -0.7750275891    2.6552471402    0.1962464640
C       -1.1277897892   -0.7455057174    0.4990119093
H       -1.9532280714   -1.3319514547    0.9240832125
13   
Frame written by nebterpolator, Fri Mar  4 17:27:37 2022
C        1.5035376980    0.4255142910   -0.6445151205
C        1.1644220702   -0.9055780454   -0.4846402596
C       -0.0585517045   -1.4553050711    0.0414482244
C       -1.2909871391    0.6711360798    0.5414218192
C       -0.3878717608    1.6387500233    0.1458513185
N        0.8578212239    1.5846968985   -0.3832079680
H        2.4957645498    0.5966397039   -1.0679234221
H        1.9191119173   -1.6235205895   -0.7965938898
H       -0.1123765554   -2.5415801874    0.0785078455
H       -2.2328185316    1.0423261908    0.9384368455
H       -0.7301868482    2.6672819023    0.2788079180
C       -1.1408808593   -0.7611911964    0.4931705073
H       -1.9869840602   -1.3391700000    0.8592361815
