13   
Frame written by nebterpolator, Wed Mar  2 22:15:48 2022
C        1.5482631015    0.2439600781   -0.2499162964
C        0.5831613954   -0.9257548257   -0.0945058348
C       -0.7090733236   -0.3596409117   -0.7859874656
C       -1.1198146451    0.1988849191    0.5900884062
C       -0.4422720388    1.0837288812   -0.5510927869
N        0.9666768840    1.3699051016   -0.4517862960
H        2.6206041138    0.1766951608   -0.0731473905
H        0.9604500354   -1.9282857562   -0.3077102016
H       -1.3183502057   -0.8222857861   -1.5565333331
H       -2.0927552132    0.5054232907    0.9613640526
H       -1.0832845491    1.8562957945   -0.9634132650
C       -0.1337518241   -0.6625006690    1.2284612501
H        0.2201462699   -0.7364252773    2.2541791605
13   
Frame written by nebterpolator, Wed Mar  2 22:15:48 2022
C        1.5612991680    0.2642474591   -0.2471804965
C        0.6137557460   -0.9093447723   -0.0909766064
C       -0.6717141020   -0.3710093365   -0.7565897698
C       -1.1028930269    0.2439060825    0.6210067560
C       -0.4354637442    1.0683526710   -0.5674305613
N        0.9420641574    1.3869804904   -0.4483691446
H        2.6468454021    0.1941987380   -0.1420057398
H        0.9791052414   -1.9242188220   -0.2987174442
H       -1.3103855037   -0.8120661995   -1.5263483167
H       -2.0874549103    0.5683925442    0.9690205202
H       -1.1016717885    1.8193008547   -0.9997360697
C       -0.1923067981   -0.7051975545    1.2275671846
H        0.1588201588   -0.8235421552    2.2597596882
13   
Frame written by nebterpolator, Wed Mar  2 22:15:48 2022
C        1.5751138228    0.2874471199   -0.2443269458
C        0.6420485801   -0.8935027736   -0.0864571879
C       -0.6386572961   -0.3832150668   -0.7280515953
C       -1.0855960133    0.2902413063    0.6532541134
C       -0.4295320564    1.0533188384   -0.5833446664
N        0.9228398835    1.4008476261   -0.4513337145
H        2.6691145093    0.2155247390   -0.2069982145
H        0.9972453892   -1.9183353611   -0.2860281425
H       -1.3008437463   -0.8057101230   -1.4957968163
H       -2.0779028311    0.6310006654    0.9789753124
H       -1.1184894107    1.7813036303   -1.0325170898
C       -0.2493643785   -0.7403557484    1.2259624978
H        0.0940235475   -0.9185648523    2.2566624494
13   
Frame written by nebterpolator, Wed Mar  2 22:15:48 2022
C        1.5903252161    0.3132621124   -0.2430299830
C        0.6682485179   -0.8786896169   -0.0805843581
C       -0.6124632448   -0.3953916812   -0.7004077012
C       -1.0674681530    0.3370699852    0.6861447198
C       -0.4251911346    1.0388910198   -0.5977324548
N        0.9110640394    1.4100440464   -0.4631336924
H        2.6868422750    0.2411679733   -0.2654136164
H        1.0152798717   -1.9105977793   -0.2682054431
H       -1.2898192393   -0.8046208863   -1.4650216254
H       -2.0626881710    0.6917038691    0.9923775872
H       -1.1339804825    1.7428965344   -1.0587410000
C       -0.3018373340   -0.7645220314    1.2226767136
H        0.0216878391   -1.0212135456    2.2410708537
13   
Frame written by nebterpolator, Wed Mar  2 22:15:48 2022
C        1.6074710657    0.3382885495   -0.2454744486
C        0.6946921168   -0.8647641987   -0.0740086459
C       -0.5914004320   -0.4060151691   -0.6725808198
C       -1.0480937597    0.3830450196    0.7184597858
C       -0.4222660701    1.0254147739   -0.6094581021
N        0.9035578656    1.4169933626   -0.4812104998
H        2.7031506369    0.2679986904   -0.3183437676
H        1.0339314698   -1.9028861523   -0.2462264935
H       -1.2775311734   -0.8078553007   -1.4347809859
H       -2.0444383842    0.7496958668    1.0089790997
H       -1.1502665788    1.7054204467   -1.0779570528
C       -0.3492604205   -0.7798625698    1.2167951118
H       -0.0595463361   -1.1254733189    2.2158068188
13   
Frame written by nebterpolator, Wed Mar  2 22:15:48 2022
C        1.6266035686    0.3616754075   -0.2522286840
C        0.7222394054   -0.8519475385   -0.0674177459
C       -0.5743310059   -0.4148535266   -0.6440592876
C       -1.0284125494    0.4276250488    0.7502254411
C       -0.4203907709    1.0128010692   -0.6178805824
N        0.8994044532    1.4222500248   -0.5030355705
H        2.7197845600    0.2952361261   -0.3678505237
H        1.0534785583   -1.8959700510   -0.2213080217
H       -1.2637910949   -0.8146389424   -1.4052863226
H       -2.0251289194    0.8049078892    1.0281335439
H       -1.1673996874    1.6693921505   -1.0905845360
C       -0.3932645966   -0.7894507914    1.2087554410
H       -0.1487919211   -1.2270268662    2.1825368485
13   
Frame written by nebterpolator, Wed Mar  2 22:15:48 2022
C        1.6486060515    0.3828005111   -0.2645352117
C        0.7509230972   -0.8413963233   -0.0618214027
C       -0.5613842802   -0.4219189285   -0.6143882786
C       -1.0099366033    0.4701881322    0.7821727667
C       -0.4192811314    1.0015450595   -0.6209460620
N        0.8996176728    1.4260311374   -0.5273693750
H        2.7382518023    0.3231198084   -0.4153770639
H        1.0738258532   -1.8909466212   -0.1936560745
H       -1.2470260659   -0.8264993261   -1.3771450610
H       -2.0067686416    0.8564378194    1.0502374092
H       -1.1847118860    1.6359589462   -1.0949683522
C       -0.4359323010   -0.7942795899    1.1985125724
H       -0.2461835675   -1.3210406252    2.1392841332
13   
Frame written by nebterpolator, Wed Mar  2 22:15:48 2022
C        1.6734797383    0.4024582053   -0.2814695080
C        0.7788056930   -0.8342602366   -0.0583495651
C       -0.5517644279   -0.4287592026   -0.5841057648
C       -0.9938833847    0.5108481615    0.8153777011
C       -0.4182970487    0.9922280513   -0.6181463747
N        0.9046618667    1.4294935351   -0.5528971884
H        2.7588561525    0.3526320611   -0.4614905339
H        1.0937986003   -1.8885340995   -0.1644553727
H       -1.2265359151   -0.8449946705   -1.3504489905
H       -1.9908043184    0.9042694085    1.0753465447
H       -1.2005263916    1.6061762752   -1.0922416875
C       -0.4796035219   -0.7954232041    1.1865176981
H       -0.3481870425   -1.4061342846    2.0863630418
13   
Frame written by nebterpolator, Wed Mar  2 22:15:48 2022
C        1.7002275557    0.4193936575   -0.3031856858
C        0.8045715369   -0.8313783718   -0.0590596762
C       -0.5460272300   -0.4365888531   -0.5543182959
C       -0.9812230935    0.5492620294    0.8507277534
C       -0.4173676935    0.9860191862   -0.6079387599
N        0.9155418310    1.4328691250   -0.5796822976
H        2.7812843997    0.3840536180   -0.5033150415
H        1.1136442603   -1.8889121439   -0.1350202238
H       -1.2022189888   -0.8733481442   -1.3250855436
H       -1.9783437891    0.9471165942    1.1048573631
H       -1.2128745147    1.5826261173   -1.0823774617
C       -0.5239355978   -0.7912982061    1.1724407330
H       -0.4532786761   -1.4798146085    2.0219571365
13   
Frame written by nebterpolator, Wed Mar  2 22:15:48 2022
C        1.7269486726    0.4316907155   -0.3285232176
C        0.8287059360   -0.8327971561   -0.0660221146
C       -0.5451623204   -0.4462690183   -0.5269430706
C       -0.9718014667    0.5851411582    0.8879917007
C       -0.4172383756    0.9831782334   -0.5901394271
N        0.9319430833    1.4355997691   -0.6077835098
H        2.8044607055    0.4167469198   -0.5364025938
H        1.1354851549   -1.8912566579   -0.1077305750
H       -1.1766599982   -0.9124273391   -1.3002209374
H       -1.9688163100    0.9846355424    1.1401092969
H       -1.2205118594    1.5671858911   -1.0669146107
C       -0.5668845532   -0.7813233043    1.1558981153
H       -0.5604686688   -1.5401047537    1.9466809436
13   
Frame written by nebterpolator, Wed Mar  2 22:15:48 2022
C        1.7532632240    0.4365115848   -0.3547238120
C        0.8569109369   -0.8374660617   -0.0810899582
C       -0.5534251810   -0.4573140212   -0.5044972469
C       -0.9657667083    0.6178295503    0.9252851381
C       -0.4203927018    0.9821287344   -0.5661879031
N        0.9533463991    1.4350274976   -0.6371484028
H        2.8278961138    0.4487354258   -0.5558387857
H        1.1654469541   -1.8933983894   -0.0852329745
H       -1.1565502033   -0.9593762179   -1.2752439413
H       -1.9604277354    1.0179865788    1.1819919090
H       -1.2237385005    1.5603835732   -1.0476962669
C       -0.6079756266   -0.7663701441    1.1365287038
H       -0.6685869711   -1.5846781106    1.8638535408
13   
Frame written by nebterpolator, Wed Mar  2 22:15:48 2022
C        1.7770849688    0.4322857342   -0.3830577720
C        0.8901297226   -0.8452656030   -0.1067414747
C       -0.5703665803   -0.4702308287   -0.4881417529
C       -0.9622094696    0.6464336361    0.9609309854
C       -0.4273487131    0.9818238501   -0.5373106386
N        0.9774745347    1.4306332066   -0.6661145340
H        2.8500137196    0.4793642606   -0.5559264427
H        1.2049851793   -1.8947749414   -0.0712371227
H       -1.1445525354   -1.0117241185   -1.2498669905
H       -1.9505823142    1.0485851016    1.2310219667
H       -1.2226177195    1.5613667410   -1.0266819276
C       -0.6472343326   -0.7474428799    1.1141364483
H       -0.7747764603   -1.6110541586    1.7789892553
13   
Frame written by nebterpolator, Wed Mar  2 22:15:48 2022
C        1.7948989635    0.4184544755   -0.4184092855
C        0.9256531087   -0.8555270689   -0.1448422676
C       -0.5907850125   -0.4858580629   -0.4772850086
C       -0.9595433711    0.6703901546    0.9936038305
C       -0.4369011279    0.9814645564   -0.5049984901
N        1.0002759130    1.4235908392   -0.6914430830
H        2.8674182359    0.5081223042   -0.5318821804
H        1.2517845749   -1.8954033034   -0.0698543025
H       -1.1391901735   -1.0670071966   -1.2239983616
H       -1.9363136759    1.0783917973    1.2868894420
H       -1.2174138245    1.5674024100   -1.0063069958
C       -0.6846140181   -0.7252959172    1.0892576326
H       -0.8752695926   -1.6187249882    1.6992690701
13   
Frame written by nebterpolator, Wed Mar  2 22:15:48 2022
C        1.8029745456    0.3968349709   -0.4603359778
C        0.9593709301   -0.8662920601   -0.1948867105
C       -0.6060301767   -0.5052113407   -0.4699512027
C       -0.9570918240    0.6894560863    1.0225581657
C       -0.4470289444    0.9803860788   -0.4701230542
N        1.0172192863    1.4159825502   -0.7081621985
H        2.8752840027    0.5322357184   -0.4892795264
H        1.3026646374   -1.8948584171   -0.0846526900
H       -1.1347055054   -1.1236747795   -1.1979035026
H       -1.9150736597    1.1100611591    1.3491473456
H       -1.2081797822    1.5743747661   -0.9895653631
C       -0.7208832557   -0.7002775002    1.0626866514
H       -0.9685202541   -1.6090172322    1.6304680630
13   
Frame written by nebterpolator, Wed Mar  2 22:15:48 2022
C        1.7979476532    0.3719213331   -0.4956241167
C        0.9904392963   -0.8736789462   -0.2524544088
C       -0.6068526848   -0.5293062960   -0.4639326695
C       -0.9573820025    0.7032955099    1.0460290897
C       -0.4570832145    0.9766339961   -0.4342741805
N        1.0233212932    1.4093344972   -0.7079608415
H        2.8696142014    0.5447298261   -0.4494129949
H        1.3584398198   -1.8910157493   -0.1199129478
H       -1.1243976530   -1.1788737960   -1.1729577448
H       -1.8830308963    1.1495894547    1.4180419838
H       -1.1954124104    1.5758186949   -0.9815153442
C       -0.7595586546   -0.6737361986    1.0358090065
H       -1.0560447478   -1.5847123258    1.5781651689
13   
Frame written by nebterpolator, Wed Mar  2 22:15:48 2022
C        1.7738259014    0.3545438388   -0.5144650119
C        1.0058407206   -0.8779987315   -0.3070758554
C       -0.5764350347   -0.5601769416   -0.4568739734
C       -0.9612279985    0.7131104783    1.0634466952
C       -0.4624341026    0.9706199450   -0.4013763241
N        1.0108544463    1.4101974090   -0.6823280073
H        2.8493519574    0.5447053612   -0.4377646290
H        1.4069824231   -1.8871638186   -0.1753604485
H       -1.0944763499   -1.2290394119   -1.1536432148
H       -1.8361654239    1.2023969000    1.4900936015
H       -1.1803863184    1.5642422324   -0.9870820317
C       -0.7999740261   -0.6514314990    1.0137848597
H       -1.1357561947   -1.5540057621    1.5486443397
13   
Frame written by nebterpolator, Wed Mar  2 22:15:48 2022
C        1.7417853373    0.3508559625   -0.5188738856
C        1.0073814308   -0.8814091943   -0.3521564449
C       -0.5284597222   -0.5920803682   -0.4510483360
C       -0.9737619991    0.7149348093    1.0726071097
C       -0.4662210890    0.9579490595   -0.3807622643
N        0.9833666308    1.4168515092   -0.6381785002
H        2.8243349369    0.5415837518   -0.4452588636
H        1.4419848643   -1.8848748743   -0.2422942805
H       -1.0566774021   -1.2628128245   -1.1454287754
H       -1.7670083169    1.2722834683    1.5529342929
H       -1.1699975216    1.5362379414   -1.0052205081
C       -0.8416012863   -0.6410995960    1.0039463644
H       -1.1951258628   -1.5284196447    1.5497340917
13   
Frame written by nebterpolator, Wed Mar  2 22:15:48 2022
C        1.7190812889    0.3552667730   -0.5143902979
C        1.0125805546   -0.8834045557   -0.3827276649
C       -0.4907662964   -0.6179303709   -0.4470021632
C       -1.0184994966    0.7082878934    1.0593435853
C       -0.4780931667    0.9393032447   -0.3743798182
N        0.9561229548    1.4215120703   -0.5940993997
H        2.8054508316    0.5412035386   -0.4516811248
H        1.4695448020   -1.8811695798   -0.3000733030
H       -1.0285872972   -1.2770050442   -1.1495633997
H       -1.6616715583    1.3461082409    1.6123291553
H       -1.1679102935    1.5026006264   -1.0281379542
C       -0.8844466615   -0.6411716860    1.0020952616
H       -1.2328056617   -1.5136011509    1.5682871233
13   
Frame written by nebterpolator, Wed Mar  2 22:15:48 2022
C        1.7021697338    0.3588374636   -0.5028858938
C        1.0235493858   -0.8844417616   -0.4092307300
C       -0.4710347290   -0.6409066896   -0.4442319617
C       -1.0651777073    0.7038284374    1.0395833024
C       -0.4926338034    0.9201835704   -0.3766108070
N        0.9301022804    1.4210328573   -0.5427339436
H        2.7898019193    0.5392333333   -0.4587257570
H        1.5007124284   -1.8741400324   -0.3514795130
H       -1.0137820519   -1.2771492008   -1.1602315807
H       -1.5423887544    1.3986789712    1.6750764699
H       -1.1630773115    1.4679796238   -1.0592177219
C       -0.9358732225   -0.6405126563    0.9953017360
H       -1.2623681675   -1.4926239162    1.5953864004
13   
Frame written by nebterpolator, Wed Mar  2 22:15:48 2022
C        1.6872013288    0.3605367865   -0.4901182208
C        1.0394788256   -0.8895401041   -0.4426757326
C       -0.4489056340   -0.6671875798   -0.4336081647
C       -1.1020912001    0.7050211349    1.0201365888
C       -0.5021549624    0.8997898103   -0.3791704955
N        0.8994435692    1.4171445354   -0.4841152976
H        2.7722498963    0.5320777082   -0.4707457351
H        1.5348605746   -1.8656675780   -0.4179668956
H       -1.0050122462   -1.2655541734   -1.1683409978
H       -1.4405846483    1.4384356864    1.7295799302
H       -1.1533639921    1.4271399880   -1.0907452674
C       -0.9908902944   -0.6345972176    0.9910373462
H       -1.2902312171   -1.4575989967    1.6367329421
13   
Frame written by nebterpolator, Wed Mar  2 22:15:48 2022
C        1.6734165274    0.3585994487   -0.4786081570
C        1.0560964190   -0.9023133348   -0.4899042838
C       -0.4210820371   -0.6979284812   -0.4122503498
C       -1.0940610298    0.7178317038    1.0191400177
C       -0.4966459967    0.8809769575   -0.3786482585
N        0.8626220794    1.4102193109   -0.4174465208
H        2.7509730711    0.5169359842   -0.4918985162
H        1.5698937605   -1.8573436279   -0.5079707163
H       -1.0049221580   -1.2412848790   -1.1669316396
H       -1.4016860956    1.4518428844    1.7577843526
H       -1.1335018324    1.3801692155   -1.1194248033
C       -1.0443735287   -0.6184600040    0.9905342412
H       -1.3167291791   -1.3992451781    1.6956246336
