13   
Frame written by nebterpolator, Wed Mar  2 03:15:00 2022
C        1.2467903328    0.2391493530    0.2452889900
C        0.5671291017   -1.1296078278   -0.2130786642
C       -0.7462328251   -0.8837993413   -0.7938688356
C       -1.0526486561    0.2204303567    0.2141082371
C       -0.4347294886    1.4776613843   -0.3838562609
N        0.8482391741    1.4593432948   -0.4109522628
H        2.2856112669    0.1481923634    0.5460922891
H        1.2042191783   -2.0016887613   -0.3225968500
H       -1.1575096410   -1.0762076433   -1.7821280533
H       -2.0596013823    0.2974853457    0.6304837076
H       -1.0062005099    2.2666915076   -0.8701299983
C        0.1476016803   -0.3534424927    1.0501550238
H        0.1573317683   -0.6642075387    2.0904826776
13   
Frame written by nebterpolator, Wed Mar  2 03:15:00 2022
C        1.2517537336    0.2395847845    0.2508731402
C        0.5700410168   -1.1123125265   -0.2133702243
C       -0.7382134218   -0.8425325905   -0.7987740749
C       -1.0545611346    0.2167224970    0.2345528681
C       -0.4398933791    1.4460670812   -0.4018326469
N        0.8538037849    1.4504518132   -0.4081752513
H        2.2952716229    0.1541581835    0.5584140224
H        1.1883119356   -2.0047913407   -0.3238958936
H       -1.1573961547   -1.0354519568   -1.7896999795
H       -2.0652146418    0.3001898855    0.6523718988
H       -1.0185977598    2.2227957410   -0.9090106860
C        0.1491887246   -0.3539663478    1.0533719012
H        0.1655056735   -0.6809152235    2.0951749257
13   
Frame written by nebterpolator, Wed Mar  2 03:15:00 2022
C        1.2571493471    0.2396835113    0.2566997012
C        0.5732721677   -1.0956200478   -0.2132074706
C       -0.7305728753   -0.8019986359   -0.8035915026
C       -1.0569560294    0.2126344120    0.2551363570
C       -0.4450339533    1.4139756049   -0.4196798742
N        0.8580854961    1.4416030696   -0.4063415829
H        2.3049823330    0.1610230503    0.5693246239
H        1.1710284893   -2.0081505103   -0.3241762030
H       -1.1556020095   -0.9929794511   -1.7975788690
H       -2.0708249264    0.3027246653    0.6737678980
H       -1.0301397583    2.1785372835   -0.9465834197
C        0.1510715178   -0.3541265985    1.0569864840
H        0.1735402011   -0.6973063534    2.0992438580
13   
Frame written by nebterpolator, Wed Mar  2 03:15:00 2022
C        1.2632135120    0.2390753064    0.2630817998
C        0.5772363501   -1.0803116909   -0.2122050011
C       -0.7237180976   -0.7630775537   -0.8083724964
C       -1.0602529853    0.2077395861    0.2760365881
C       -0.4496183855    1.3811763163   -0.4373937958
N        0.8591274576    1.4330896615   -0.4063020808
H        2.3145566379    0.1697359354    0.5776969110
H        1.1511665076   -2.0117073061   -0.3226874631
H       -1.1508151899   -0.9475059215   -1.8056613655
H       -2.0762974952    0.3049944108    0.6940880908
H       -1.0395344380    2.1338124182   -0.9817151496
C        0.1535135544   -0.3538833771    1.0615217438
H        0.1814225718   -0.7131377854    2.1019122188
13   
Frame written by nebterpolator, Wed Mar  2 03:15:00 2022
C        1.2704112364    0.2376294191    0.2699057935
C        0.5819541140   -1.0667043668   -0.2101166644
C       -0.7180691792   -0.7268647709   -0.8128884800
C       -1.0647334252    0.2018012400    0.2968028853
C       -0.4542418846    1.3473707972   -0.4543755982
N        0.8572712772    1.4245813280   -0.4084858555
H        2.3245737648    0.1804039079    0.5826339105
H        1.1280625304   -2.0158420534   -0.3187131787
H       -1.1420582310   -0.8982437447   -1.8144208602
H       -2.0819949270    0.3065532572    0.7125923205
H       -1.0469102243    2.0892405553   -1.0129206764
C        0.1567466078   -0.3524319634    1.0668728709
H        0.1889883407   -0.7274936055    2.1031135326
13   
Frame written by nebterpolator, Wed Mar  2 03:15:00 2022
C        1.2792159296    0.2354512435    0.2767130642
C        0.5871014278   -1.0546379988   -0.2068984389
C       -0.7139343543   -0.6943395990   -0.8167906431
C       -1.0704466675    0.1947706407    0.3165750842
C       -0.4602082598    1.3122687595   -0.4697184128
N        0.8546356888    1.4153226863   -0.4128120907
H        2.3360916564    0.1923704062    0.5837807107
H        1.1017403414   -2.0211514512   -0.3118183325
H       -1.1290004239   -0.8450893325   -1.8245996661
H       -2.0886148618    0.3067568503    0.7286056498
H       -1.0535219088    2.0459739480   -1.0388819352
C        0.1608998757   -0.3485739009    1.0724111408
H        0.1960415564   -0.7391222521    2.1034338696
13   
Frame written by nebterpolator, Wed Mar  2 03:15:00 2022
C        1.2897090238    0.2326520217    0.2831293581
C        0.5924168858   -1.0440356150   -0.2026389853
C       -0.7114565852   -0.6661825527   -0.8200308890
C       -1.0772624626    0.1866222711    0.3347130992
C       -0.4680933424    1.2759806484   -0.4828966824
N        0.8525096578    1.4049379352   -0.4190176748
H        2.3495990214    0.2050233129    0.5813400718
H        1.0726298611   -2.0277993641   -0.3020415210
H       -1.1119599283   -0.7886184778   -1.8363024747
H       -2.0965571484    0.3051741774    0.7416615595
H       -1.0600770985    2.0051893437   -1.0589323993
C        0.1659629938   -0.3417445202    1.0776484534
H        0.2025791216   -0.7471991805    2.1033680844
13   
Frame written by nebterpolator, Wed Mar  2 03:15:00 2022
C        1.3016491842    0.2293658956    0.2889891630
C        0.5977838182   -1.0348503692   -0.1975478273
C       -0.7105336638   -0.6423413277   -0.8229091969
C       -1.0849476700    0.1774308948    0.3510215440
C       -0.4777494527    1.2389314963   -0.4939835730
N        0.8513042079    1.3935399847   -0.4266846819
H        2.3648158200    0.2179489078    0.5760501951
H        1.0414206679   -2.0354671451   -0.2899018374
H       -1.0918515142   -0.7299155126   -1.8489627850
H       -2.1057639547    0.3017601713    0.7517244666
H       -1.0666729986    1.9674704509   -1.0733612992
C        0.1717718639   -0.3322011403    1.0824027537
H        0.2087736919   -0.7516723066    2.1031630781
13   
Frame written by nebterpolator, Wed Mar  2 03:15:00 2022
C        1.3147527024    0.2257223684    0.2942600705
C        0.6031623246   -1.0269818458   -0.1918309362
C       -0.7109462835   -0.6223058631   -0.8257921381
C       -1.0932923220    0.1673143366    0.3655761037
C       -0.4888571449    1.2014888402   -0.5033234712
N        0.8511199248    1.3813870031   -0.4354188056
H        2.3812427230    0.2309044151    0.5687067223
H        1.0087058268   -2.0437454386   -0.2759798652
H       -1.0696052956   -0.6699459993   -1.8619225868
H       -2.1160134525    0.2966475469    0.7590263760
H       -1.0732253669    1.9328600106   -1.0828686267
C        0.1781328670   -0.3204628830    1.0866461739
H        0.2148234968   -0.7528824911    2.1029209833
13   
Frame written by nebterpolator, Wed Mar  2 03:15:00 2022
C        1.3288182762    0.2217661140    0.2989047453
C        0.6085427380   -1.0204475267   -0.1855708279
C       -0.7125517058   -0.6057957990   -0.8290631090
C       -1.1021597489    0.1562323859    0.3784005427
C       -0.5011153696    1.1638498744   -0.5111984597
N        0.8518221459    1.3686966101   -0.4450386124
H        2.3984901837    0.2437926621    0.5598466414
H        0.9747456792   -2.0523042836   -0.2606059008
H       -1.0458181007   -0.6093424192   -1.8745712830
H       -2.1271839117    0.2897914353    0.7635863042
H       -1.0794701377    1.9015636967   -1.0876999946
C        0.1849197964   -0.3068623940    1.0903218845
H        0.2209601550   -0.7509403558    2.1026880692
13   
Frame written by nebterpolator, Wed Mar  2 03:15:00 2022
C        1.3435509604    0.2175007392    0.3029472768
C        0.6139434180   -1.0151589463   -0.1788039396
C       -0.7150459763   -0.5921354602   -0.8331758025
C       -1.1113788915    0.1440810853    0.3897304502
C       -0.5139787941    1.1259878483   -0.5181727760
N        0.8528043922    1.3557607184   -0.4554152674
H        2.4161259253    0.2566740017    0.5501835523
H        0.9396078972   -2.0607856527   -0.2441526475
H       -1.0211785342   -0.5486661250   -1.8863139516
H       -2.1391566700    0.2811375980    0.7655579335
H       -1.0848846319    1.8735848791   -1.0882854111
C        0.1919945361   -0.2918330219    1.0933529580
H        0.2275963688   -0.7461476639    2.1025476249
13   
Frame written by nebterpolator, Wed Mar  2 03:15:00 2022
C        1.3587510146    0.2131131071    0.3065292043
C        0.6193782761   -1.0105661229   -0.1717161870
C       -0.7179399384   -0.5797178088   -0.8382828123
C       -1.1208148406    0.1311338068    0.4001042748
C       -0.5271757249    1.0875189889   -0.5251164361
N        0.8541374882    1.3428559353   -0.4660606046
H        2.4338273823    0.2695097185    0.5407909757
H        0.9034886660   -2.0688775040   -0.2273333034
H       -0.9967322129   -0.4885399973   -1.8970918853
H       -2.1517222009    0.2710745872    0.7656570165
H       -1.0894963510    1.8478422546   -1.0859693519
C        0.1991818151   -0.2759578656    1.0957726164
H        0.2351166262   -0.7393890997    2.1027164929
13   
Frame written by nebterpolator, Wed Mar  2 03:15:00 2022
C        1.3745985397    0.2090147183    0.3096464280
C        0.6248046399   -1.0060111864   -0.1644147940
C       -0.7205067963   -0.5658694311   -0.8450752248
C       -1.1306286820    0.1175669875    0.4100438333
C       -0.5406660486    1.0461190982   -0.5341415910
N        0.8566740889    1.3305227754   -0.4757555038
H        2.4512570433    0.2820938809    0.5344138287
H        0.8660572648   -2.0757901842   -0.2119079947
H       -0.9749762079   -0.4307302168   -1.9068633226
H       -2.1652034384    0.2595825283    0.7638285249
H       -1.0929503215    1.8234497046   -1.0810071524
C        0.2062400484   -0.2597145075    1.0975596299
H        0.2452998699   -0.7302341672    2.1036733385
13   
Frame written by nebterpolator, Wed Mar  2 03:15:00 2022
C        1.3787449093    0.2128928558    0.3125247257
C        0.6244557505   -0.9978324673   -0.1649842876
C       -0.7110428082   -0.5304705087   -0.8514927840
C       -1.1342111862    0.1184974408    0.4175737518
C       -0.5413671567    1.0139443687   -0.5587841386
N        0.8660631529    1.3341356319   -0.4622130887
H        2.4506793801    0.2804559435    0.5601180819
H        0.8618380053   -2.0675650155   -0.2329588013
H       -0.9991203876   -0.4401730166   -1.9046478916
H       -2.1704267184    0.2603119116    0.7651422079
H       -1.0910825484    1.8060645562   -1.0884729151
C        0.2047521841   -0.2642397003    1.0997264684
H        0.2607174232   -0.7260220002    2.1084686714
13   
Frame written by nebterpolator, Wed Mar  2 03:15:00 2022
C        1.3690003015    0.2190128370    0.3144480182
C        0.6196397550   -0.9941807713   -0.1712803443
C       -0.6989166745   -0.5069888822   -0.8529336476
C       -1.1286475694    0.1298946045    0.4159263279
C       -0.5296609494    1.0226022129   -0.5727405539
N        0.8708106495    1.3476593485   -0.4428392391
H        2.4358818126    0.2679339418    0.5847339925
H        0.8911476932   -2.0534058611   -0.2643788865
H       -1.0380622948   -0.4956122562   -1.8884964544
H       -2.1628882441    0.2703826338    0.7695727321
H       -1.0870392636    1.8092670468   -1.1033065708
C        0.1976609794   -0.2829191376    1.1001025135
H        0.2610738045   -0.7336457170    2.1111921123
13   
Frame written by nebterpolator, Wed Mar  2 03:15:00 2022
C        1.3585769013    0.2246486543    0.3166637841
C        0.6146547696   -0.9915671585   -0.1772673641
C       -0.6870596169   -0.4845009433   -0.8562817633
C       -1.1223483465    0.1408155214    0.4134912397
C       -0.5173266628    1.0344633275   -0.5856259781
N        0.8744455910    1.3611596823   -0.4245948335
H        2.4204975085    0.2549831242    0.6070545329
H        0.9219521906   -2.0385221004   -0.2943531427
H       -1.0754871757   -0.5510940523   -1.8684807266
H       -2.1542748294    0.2801896056    0.7745593754
H       -1.0829426772    1.8141108259   -1.1182458680
C        0.1903883323   -0.3021288238    1.0997078569
H        0.2589240152   -0.7425576629    2.1133728872
13   
Frame written by nebterpolator, Wed Mar  2 03:15:00 2022
C        1.3476942149    0.2300656241    0.3190330704
C        0.6096631156   -0.9908013848   -0.1832311894
C       -0.6766218794   -0.4635657134   -0.8625406642
C       -1.1159794892    0.1514537950    0.4108454844
C       -0.5047321028    1.0482529141   -0.5986490485
N        0.8773986955    1.3744002803   -0.4073273154
H        2.4036240144    0.2419568332    0.6276323440
H        0.9544035546   -2.0219530878   -0.3230023054
H       -1.1105342489   -0.6052758056   -1.8442108469
H       -2.1441172804    0.2905089505    0.7806565464
H       -1.0783869085    1.8196644078   -1.1329797123
C        0.1826688683   -0.3223930519    1.0988932055
H        0.2549194459   -0.7523137616    2.1148804315
13   
Frame written by nebterpolator, Wed Mar  2 03:15:00 2022
C        1.3367174597    0.2355132280    0.3215047120
C        0.6048676163   -0.9918891689   -0.1893936878
C       -0.6679185446   -0.4443668744   -0.8708270742
C       -1.1101363595    0.1620972922    0.4084745179
C       -0.4921446607    1.0630714711   -0.6121625688
N        0.8801278225    1.3874360665   -0.3905786879
H        2.3850975114    0.2291306952    0.6470418957
H        0.9880450700   -2.0036273976   -0.3507409063
H       -1.1435307629   -0.6580256748   -1.8173342852
H       -2.1323763246    0.3015975177    0.7876527035
H       -1.0731708532    1.8252011257   -1.1474599744
C        0.1745192686   -0.3437969278    1.0984312656
H        0.2499027570   -0.7623413528    2.1153920900
13   
Frame written by nebterpolator, Wed Mar  2 03:15:00 2022
C        1.3257160568    0.2410570942    0.3240232236
C        0.6003266958   -0.9949780730   -0.1958192422
C       -0.6612482270   -0.4272703283   -0.8810154092
C       -1.1050006818    0.1728322883    0.4065371215
C       -0.4796803161    1.0786897510   -0.6262317121
N        0.8827212191    1.4001778348   -0.3743262469
H        2.3647956325    0.2166392506    0.6652949765
H        1.0228141452   -1.9834898862   -0.3775082270
H       -1.1742197477   -0.7089622968   -1.7882700778
H       -2.1189461152    0.3136369835    0.7956036121
H       -1.0672491330    1.8305186572   -1.1616045615
C        0.1659217100   -0.3663788928    1.0985219753
H        0.2440487612   -0.7724723826    2.1147945675
13   
Frame written by nebterpolator, Wed Mar  2 03:15:00 2022
C        1.3146359022    0.2466977956    0.3264996682
C        0.5959544727   -0.9996574473   -0.2024851647
C       -0.6562919752   -0.4120289998   -0.8927215916
C       -1.1003926189    0.1836927850    0.4049414643
C       -0.4673528518    1.0948108495   -0.6407534521
N        0.8852180084    1.4125958873   -0.3584886571
H        2.3430949573    0.2044412757    0.6826990857
H        1.0585500344   -1.9620004003   -0.4035030909
H       -1.2029079489   -0.7582567624   -1.7575808774
H       -2.1042370920    0.3265760872    0.8044153693
H       -1.0608261742    1.8356308107   -1.1754387843
C        0.1569510201   -0.3898533809    1.0989666411
H        0.2376042657   -0.7826485004    2.1134493894
13   
Frame written by nebterpolator, Wed Mar  2 03:15:00 2022
C        1.3034546361    0.2523792074    0.3288982450
C        0.5916208169   -1.0050615106   -0.2092733159
C       -0.6521746658   -0.3977619576   -0.9052004810
C       -1.0959615426    0.1946255814    0.4034628598
C       -0.4551047710    1.1111037542   -0.6554759130
N        0.8876507590    1.4247890291   -0.3428919214
H        2.3207843931    0.1923823779    0.6997398880
H        1.0948072486   -1.9399707229   -0.4291213193
H       -1.2305206661   -0.8066343762   -1.7260998326
H       -2.0890181747    0.3400189988    0.8137148189
H       -1.0542314864    1.8406678575   -1.1890933672
C        0.1477966174   -0.4136884767    1.0994451576
H        0.2308968352   -0.7928497623    2.1118951812
