13
Frame written by nebterpolator, Wed Mar  2 09:56:20 2022
C      1.6801790246   0.3941026087  -0.1783820193
C      1.1262118113  -0.8348490310  -0.2685289378
C     -0.3162841307  -1.0621848678  -0.0823204238
C     -1.1557279371   0.3278757744   0.0469936080
C     -0.3269541053   1.5324844040  -0.1484785026
N      0.9598677316   1.5898455975  -0.1662576803
H      2.7570140642   0.5227856985  -0.2501939659
H      1.7478113132  -1.6980287218  -0.4937562742
H     -0.7575702086  -1.9017382680  -0.6224630194
H     -2.1622104709   0.3916870516  -0.3711500977
H     -0.8676481845   2.4600622154  -0.3521833492
C     -0.9589916683  -0.6131773555   1.1517287765
H     -1.7256972399  -1.1088651055   1.7349918851
13
Frame written by nebterpolator, Wed Mar  2 09:56:20 2022
C      1.6745780592   0.3944536183  -0.1744553968
C      1.1155107511  -0.8380337870  -0.2717566812
C     -0.3176020861  -1.0613030951  -0.0984770920
C     -1.1622451941   0.3219541677   0.0371018286
C     -0.3361144847   1.5216463308  -0.1568261046
N      0.9590359943   1.5815974262  -0.1629113488
H      2.7557835779   0.5196563966  -0.2288489472
H      1.7464685078  -1.7058882545  -0.4706216873
H     -0.7780495309  -1.8853594681  -0.6532814197
H     -2.1759012655   0.3721805607  -0.3746381386
H     -0.8684010308   2.4610798806  -0.3412847737
C     -0.9288248918  -0.5832557816   1.1527248238
H     -1.6842384064  -1.0987279946   1.7432749375
13
Frame written by nebterpolator, Wed Mar  2 09:56:20 2022
C      1.6688635980   0.3943322242  -0.1707356857
C      1.1049431691  -0.8414196590  -0.2747481943
C     -0.3186821009  -1.0608526361  -0.1146822884
C     -1.1688386229   0.3162114080   0.0275112241
C     -0.3451532801   1.5113806993  -0.1648652389
N      0.9575909120   1.5736377012  -0.1596493200
H      2.7540673546   0.5162110145  -0.2077541877
H      1.7448751782  -1.7134691881  -0.4472442729
H     -0.7978452240  -1.8689012225  -0.6840771056
H     -2.1892949269   0.3527932149  -0.3776451077
H     -0.8689022269   2.4621138813  -0.3307218331
C     -0.8989860111  -0.5533975587   1.1537355859
H     -1.6426378191  -1.0886398791   1.7508764242
13
Frame written by nebterpolator, Wed Mar  2 09:56:20 2022
C      1.6628974094   0.3928376893  -0.1675620171
C      1.0954482764  -0.8450277536  -0.2774045981
C     -0.3200054418  -1.0614009631  -0.1308845560
C     -1.1757670584   0.3105861635   0.0185571646
C     -0.3534517887   1.5024456829  -0.1724801255
N      0.9540276601   1.5663920075  -0.1567055987
H      2.7513717022   0.5120987512  -0.1870914743
H      1.7433402347  -1.7199532979  -0.4233063296
H     -0.8167197583  -1.8520961137  -0.7145045661
H     -2.2019833150   0.3336789289  -0.3794167340
H     -0.8683027979   2.4632783236  -0.3208780804
C     -0.8701008959  -0.5241442432   1.1547169919
H     -1.6007542270  -1.0786951755   1.7569599234
13
Frame written by nebterpolator, Wed Mar  2 09:56:20 2022
C      1.6567805965   0.3898534885  -0.1648957835
C      1.0872021831  -0.8489495901  -0.2796258504
C     -0.3216315961  -1.0631398737  -0.1470884411
C     -1.1830522429   0.3051531557   0.0103945742
C     -0.3609961575   1.4950874242  -0.1795467971
N      0.9483101482   1.5599880174  -0.1540835027
H      2.7474764481   0.5072513783  -0.1669007915
H      1.7417992727  -1.7252134939  -0.3990352464
H     -0.8344222174  -1.8350424732  -0.7444936052
H     -2.2137938941   0.3149165649  -0.3797503474
H     -0.8666254739   2.4645121105  -0.3120020873
C     -0.8423935933  -0.4956304936   1.1556489117
H     -1.5586534736  -1.0687862152   1.7613789666
13
Frame written by nebterpolator, Wed Mar  2 09:56:20 2022
C      1.6506774557   0.3861196163  -0.1623383220
C      1.0794379796  -0.8533193034  -0.2813362094
C     -0.3231642104  -1.0658090168  -0.1633814461
C     -1.1903770113   0.3000956232   0.0030097200
C     -0.3683774196   1.4888816339  -0.1859386365
N      0.9418567098   1.5541194829  -0.1515376640
H      2.7427167514   0.5019599741  -0.1470084735
H      1.7398313926  -1.7299963631  -0.3750188479
H     -0.8508322286  -1.8181365121  -0.7744281609
H     -2.2249420833   0.2964139734  -0.3790045721
H     -0.8648512527   2.4657038654  -0.3041865581
C     -0.8154730450  -0.4673599852   1.1564328342
H     -1.5165030382  -1.0586729887   1.7647363362
13
Frame written by nebterpolator, Wed Mar  2 09:56:20 2022
C      1.6448722600   0.3818505588  -0.1597281613
C      1.0727148483  -0.8580275854  -0.2826921973
C     -0.3254259183  -1.0693204123  -0.1797337822
C     -1.1977356440   0.2952415996  -0.0035391931
C     -0.3756263164   1.4835705319  -0.1917838898
N      0.9350978155   1.5485782252  -0.1490546864
H      2.7373829463   0.4965301487  -0.1270877569
H      1.7379092337  -1.7342962899  -0.3515948027
H     -0.8667117523  -1.8014213953  -0.8042966629
H     -2.2355625012   0.2780935568  -0.3770708899
H     -0.8632068180   2.4667966517  -0.2975890581
C     -0.7893195465  -0.4394009651   1.1568292766
H     -1.4743886070  -1.0481946248   1.7673418040
13
Frame written by nebterpolator, Wed Mar  2 09:56:20 2022
C      1.6392477297   0.3772110465  -0.1568066946
C      1.0665787347  -0.8630862463  -0.2836826846
C     -0.3281655226  -1.0735873232  -0.1962448665
C     -1.2049333432   0.2906369290  -0.0092650605
C     -0.3827666452   1.4791039748  -0.1971563902
N      0.9282013521   1.5433882791  -0.1465533815
H      2.7315863441   0.4909804110  -0.1070204793
H      1.7357802068  -1.7383657904  -0.3291031421
H     -0.8817742265  -1.7850939385  -0.8342627858
H     -2.2455937463   0.2599133183  -0.3740511761
H     -0.8619406472   2.4678243192  -0.2922792520
C     -0.7638310863  -0.4117437498   1.1568591015
H     -1.4323891501  -1.0371812297   1.7695668118
13
Frame written by nebterpolator, Wed Mar  2 09:56:20 2022
C      1.6337507216   0.3725180638  -0.1533406066
C      1.0605859011  -0.8686680737  -0.2843658924
C     -0.3312067673  -1.0786035560  -0.2130015375
C     -1.2117981642   0.2862820566  -0.0141794069
C     -0.3897508672   1.4754302457  -0.2021657762
N      0.9213149347   1.5386147072  -0.1439501174
H      2.7253890030   0.4855020189  -0.0866568758
H      1.7331423140  -1.7425031989  -0.3078419644
H     -0.8957935282  -1.7693071178  -0.8644548669
H     -2.2549338368   0.2418435725  -0.3699861985
H     -0.8611908879   2.4687923914  -0.2883478917
C     -0.7389391324  -0.3844108978   1.1565717265
H     -1.3905696905  -1.0254902117   1.7717194077
13
Frame written by nebterpolator, Wed Mar  2 09:56:20 2022
C      1.6282985476   0.3680190128  -0.1491914268
C      1.0544430493  -0.8748168819  -0.2848225141
C     -0.3345125919  -1.0842676797  -0.2300733945
C     -1.2181698386   0.2821410295  -0.0182854576
C     -0.3965566048   1.4723925179  -0.2069273545
N      0.9145877497   1.5342135917  -0.1412079097
H      2.7189662272   0.4802582760  -0.0658448240
H      1.7298769043  -1.7469660445  -0.2879173219
H     -0.9087595000  -1.7541132974  -0.8950350488
H     -2.2635905544   0.2238228350  -0.3648937359
H     -0.8610993512   2.4697360847  -0.2858261627
C     -0.7145110684  -0.3573525920   1.1559573923
H     -1.3489729688  -1.0130668522   1.7740677582
13
Frame written by nebterpolator, Wed Mar  2 09:56:20 2022
C      1.6228946007   0.3637087221  -0.1443352850
C      1.0482367338  -0.8814331174  -0.2851108944
C     -0.3382445114  -1.0904635934  -0.2475113363
C     -1.2240249690   0.2781530183  -0.0215925739
C     -0.4031622868   1.4699028804  -0.2115631252
N      0.9080426330   1.5301591134  -0.1383786982
H      2.7123239862   0.4752388226  -0.0444919586
H      1.7260808409  -1.7517286393  -0.2693090989
H     -0.9207796984  -1.7394563499  -0.9260621752
H     -2.2715494978   0.2058186284  -0.3587254519
H     -0.8616667222   2.4706303568  -0.2846870256
C     -0.6905241977  -0.3306352362   1.1550382874
H     -1.3076269111  -0.9998946057   1.7767293357
13
Frame written by nebterpolator, Wed Mar  2 09:56:20 2022
C      1.6174807754   0.3595753324  -0.1387605069
C      1.0418827573  -0.8884578750  -0.2852324371
C     -0.3423623162  -1.0970775259  -0.2653673969
C     -1.2293212231   0.2742978284  -0.0241251372
C     -0.4095628099   1.4679084210  -0.2161564867
N      0.9016771119   1.5264547474  -0.1355016596
H      2.7054217789   0.4703859618  -0.0225685405
H      1.7217129195  -1.7568052067  -0.2519820932
H     -0.9317760689  -1.7252859821  -0.9576153038
H     -2.2787689510   0.1878039527  -0.3514865113
H     -0.8628941829   2.4714626033  -0.2848811766
C     -0.6669364454  -0.3042832749   1.1538906500
H     -1.2665533456  -0.9859789825   1.7797865999
13
Frame written by nebterpolator, Wed Mar  2 09:56:20 2022
C      1.6120152544   0.3556324242  -0.1324771038
C      1.0353174872  -0.8958528853  -0.2851943959
C     -0.3468490429  -1.1039950673  -0.2836740925
C     -1.2340301717   0.2705508985  -0.0259151463
C     -0.4157615169   1.4663474016  -0.2207784596
N      0.8955107101   1.5230923348  -0.1326149960
H      2.6982237822   0.4656750638  -0.0000576588
H      1.7167434574  -1.7622171019  -0.2358713956
H     -0.9417162695  -1.7115342163  -0.9897422081
H     -2.2852180803   0.1697586046  -0.3431891391
H     -0.8647690235   2.4722123101  -0.2863502964
C     -0.6437038663  -0.2783160179   1.1525825352
H     -1.2257627202  -0.9713537489   1.7832823569
13
Frame written by nebterpolator, Wed Mar  2 09:56:20 2022
C      1.6064984798   0.3518011348  -0.1255512062
C      1.0286511733  -0.9034686238  -0.2849979012
C     -0.3518062785  -1.1110474336  -0.3024452705
C     -1.2381795095   0.2668788955  -0.0269975883
C     -0.4218406737   1.4651268903  -0.2254863435
N      0.8896482362   1.5199973040  -0.1297877535
H      2.6907186798   0.4610034668   0.0230420399
H      1.7112744032  -1.7678809365  -0.2208496636
H     -0.9506858886  -1.6980849280  -1.0224498134
H     -2.2909078928   0.1516516700  -0.3338359602
H     -0.8673131522   2.4728402933  -0.2889928623
C     -0.6208040676  -0.2527472716   1.1511422709
H     -1.1852535094  -0.9560704609   1.7872100521
13
Frame written by nebterpolator, Wed Mar  2 09:56:20 2022
C      1.6009083484   0.3479743686  -0.1180492061
C      1.0219876104  -0.9111524738  -0.2846298693
C     -0.3573174924  -1.1180689799  -0.3216862403
C     -1.2417886126   0.2632522729  -0.0274125589
C     -0.4278568224   1.4641788536  -0.2303257302
N      0.8841325986   1.5171112740  -0.1270884346
H      2.6828779566   0.4562527800   0.0467221288
H      1.7054041475  -1.7737031544  -0.2067913180
H     -0.9587652760  -1.6848294596  -1.0557236269
H     -2.2958423657   0.1334583500  -0.3234413766
H     -0.8705233965   2.4733239249  -0.2927148713
C     -0.5982050318  -0.2275974547   1.1495971850
H     -1.1450116642  -0.9402003015   1.7915439185
13
Frame written by nebterpolator, Wed Mar  2 09:56:20 2022
C      1.5951834527   0.3441042649  -0.1100015458
C      1.0152933792  -0.9188363770  -0.2840735271
C     -0.3633593754  -1.1249332880  -0.3414004401
C     -1.2448356382   0.2596567138  -0.0272094073
C     -0.4338117048   1.4634746999  -0.2353318609
N      0.8789368955   1.5144281230  -0.1245571988
H      2.6746457237   0.4513542455   0.0709729713
H      1.6991235359  -1.7796602023  -0.1936196962
H     -0.9659505444  -1.6717058966  -1.0895360471
H     -2.2999915319   0.1151716610  -0.3120486407
H     -0.8743644089   2.4736616740  -0.2974543475
C     -0.5758545194  -0.2028900240   1.1479975854
H     -1.1050152641  -0.9238255942   1.7962621548
13
Frame written by nebterpolator, Wed Mar  2 09:56:20 2022
C      1.5892619776   0.3402378212  -0.1014055010
C      1.0084359321  -0.9265368349  -0.2833326147
C     -0.3698507185  -1.1315487901  -0.3615900380
C     -1.2472745251   0.2560904939  -0.0264460287
C     -0.4396932960   1.4629948970  -0.2405370241
N      0.8740576563   1.5119665113  -0.1222050608
H      2.6659610372   0.4463136054   0.0957980784
H      1.6923382367  -1.7857972508  -0.1813052411
H     -0.9722007314  -1.6586946818  -1.1238354914
H     -2.3033041838   0.0968069184  -0.2997182050
H     -0.8787998743   2.4738492552  -0.3031767338
C     -0.5536939581  -0.1786497698   1.1464049129
H     -1.0652375526  -0.9070321750   1.8013489474
13
Frame written by nebterpolator, Wed Mar  2 09:56:20 2022
C      1.5831347829   0.3365212684  -0.0922358829
C      1.0013439550  -0.9343299683  -0.2824675030
C     -0.3768200196  -1.1378589094  -0.3822516326
C     -1.2490615321   0.2525399908  -0.0251800520
C     -0.4454726416   1.4626949073  -0.2459968364
N      0.8695357775   1.5097400575  -0.1200310644
H      2.6567785711   0.4412521128   0.1212448287
H      1.6849868759  -1.7921864486  -0.1698329184
H     -0.9776068146  -1.6457869608  -1.1585203878
H     -2.3057353984   0.0784185164  -0.2864786944
H     -0.8837765111   2.4738570186  -0.3098895616
C     -0.5316682765  -0.1549357042   1.1448583202
H     -1.0256387685  -0.8899258804   1.8067813847
13
Frame written by nebterpolator, Wed Mar  2 09:56:20 2022
C      1.5769306198   0.3333910104  -0.0823845676
C      0.9941106665  -0.9424699287  -0.2816705873
C     -0.3846379899  -1.1438992862  -0.4033927283
C     -1.2501314395   0.2489544317  -0.0234464884
C     -0.4510545160   1.4624561616  -0.2518612688
N      0.8655279198   1.5077610771  -0.1180170367
H      2.6470746770   0.4366263113   0.1474970599
H      1.6770821603  -1.7989945439  -0.1592307467
H     -0.9826020801  -1.6329701013  -1.1934010885
H     -2.3072253888   0.0601706874  -0.2722151459
H     -0.8892001147   2.4735733207  -0.3177584829
C     -0.5097231432  -0.1319325013   1.1433487026
H     -0.9861513714  -0.8726666387   1.8125323787
13
Frame written by nebterpolator, Wed Mar  2 09:56:20 2022
C      1.5707476614   0.3312374683  -0.0717395605
C      0.9869774401  -0.9512173413  -0.2811587495
C     -0.3937748774  -1.1497233777  -0.4250110279
C     -1.2504201186   0.2452644452  -0.0212885099
C     -0.4562286702   1.4621661272  -0.2583061981
N      0.8619676381   1.5060628125  -0.1161634007
H      2.6367952001   0.4329389747   0.1747540535
H      1.6687669439  -1.8063572414  -0.1494680593
H     -0.9878078198  -1.6202008862  -1.2282510701
H     -2.3077462727   0.0422876482  -0.2567953235
H     -0.8948452639   2.4729053045  -0.3269803228
C     -0.4877654733  -0.1098718947   1.1418611548
H     -0.9466663877  -0.8554920391   1.8185470140
13
Frame written by nebterpolator, Wed Mar  2 09:56:20 2022
C      1.5643949200   0.3299667029  -0.0603021094
C      0.9796631547  -0.9605425629  -0.2809460401
C     -0.4037938836  -1.1551772023  -0.4470905314
C     -1.2498829849   0.2415209543  -0.0187937702
C     -0.4610232674   1.4618482285  -0.2652776905
N      0.8587529658   1.5046687797  -0.1144519251
H      2.6258425395   0.4300228757   0.2029683710
H      1.6598634507  -1.8143053749  -0.1405589634
H     -0.9929643380  -1.6075428577  -1.2629971809
H     -2.3072731147   0.0247838462  -0.2404355189
H     -0.9006807526   2.4718923360  -0.3374470835
C     -0.4657434281  -0.0886637783   1.1405097517
H     -0.9071552614  -0.8384719473   1.8248226907
13
Frame written by nebterpolator, Wed Mar  2 09:56:20 2022
C      1.5576076329   0.3293035047  -0.0480321426
C      0.9719368540  -0.9702644347  -0.2810069363
C     -0.4142627607  -1.1600190438  -0.4696508024
C     -1.2484302648   0.2377616454  -0.0160053817
C     -0.4654667584   1.4615581472  -0.2727342244
N      0.8557319489   1.5036010250  -0.1129240620
H      2.6140437251   0.4275325692   0.2321583357
H      1.6502382822  -1.8227642815  -0.1326206405
H     -0.9977222257  -1.5950430178  -1.2976161947
H     -2.3057175520   0.0076384557  -0.2232875225
H     -0.9067142368   2.4705794859  -0.3491214820
C     -0.4436304052  -0.0682444239   1.1394332041
H     -0.8676142395  -0.8216396314   1.8314078494
13
Frame written by nebterpolator, Wed Mar  2 09:56:20 2022
C      1.5502270285   0.3292191530  -0.0348167559
C      0.9636824301  -0.9803653984  -0.2814350917
C     -0.4249709585  -1.1641023427  -0.4927024176
C     -1.2459690210   0.2339983019  -0.0129548354
C     -0.4695426216   1.4612774467  -0.2807067013
N      0.8528500754   1.5028744284  -0.1115964575
H      2.6012518243   0.4254034322   0.2624366981
H      1.6398131547  -1.8317531929  -0.1258053596
H     -1.0019889749  -1.5827263304  -1.3320305913
H     -2.3030080608  -0.0090680197  -0.2054059314
H     -0.9129150939   2.4689377393  -0.3620850865
C     -0.4214048637  -0.0486258982   1.1387466929
H     -0.8280249184  -0.8050693193   1.8383558372
13
Frame written by nebterpolator, Wed Mar  2 09:56:20 2022
C      1.5417683412   0.3296249731  -0.0204792858
C      0.9538166494  -0.9908793073  -0.2823066372
C     -0.4346391339  -1.1671921508  -0.5162243828
C     -1.2422536502   0.2303489789  -0.0097019908
C     -0.4732808993   1.4611585448  -0.2890493575
N      0.8499946360   1.5026610133  -0.1103252080
H      2.5872002415   0.4232363415   0.2938061577
H      1.6277865824  -1.8414971742  -0.1205728290
H     -1.0045512498  -1.5708900154  -1.3662572072
H     -2.2989123995  -0.0254032766  -0.1871824008
H     -0.9193742090   2.4670399684  -0.3763238790
C     -0.3990794580  -0.0295626617   1.1387630708
H     -0.7884754508  -0.7886452339   1.8458539495
13
Frame written by nebterpolator, Wed Mar  2 09:56:20 2022
C      1.5310673239   0.3297803987  -0.0048344972
C      0.9397370765  -1.0014569433  -0.2835539921
C     -0.4401031011  -1.1687370288  -0.5401579770
C     -1.2368039123   0.2270896133  -0.0063491411
C     -0.4768558220   1.4617143938  -0.2972837391
N      0.8468035460   1.5033269184  -0.1088437552
H      2.5713521544   0.4195278040   0.3260936798
H      1.6123026072  -1.8522062030  -0.1178388681
H     -1.0021497868  -1.5601956626  -1.4006007309
H     -2.2929305921  -0.0418538884  -0.1695824726
H     -0.9264239107   2.4652170777  -0.3915595157
C     -0.3767268701  -0.0102679037   1.1400785889
H     -0.7492687130  -0.7719385759   1.8544324204
13
Frame written by nebterpolator, Wed Mar  2 09:56:20 2022
C      1.5176914644   0.3277938593   0.0121188736
C      0.9231310831  -1.0104674311  -0.2848909675
C     -0.4421488052  -1.1680004579  -0.5645785057
C     -1.2297180634   0.2240172131  -0.0027990842
C     -0.4803418528   1.4629134304  -0.3055916041
N      0.8426656208   1.5044921045  -0.1079052401
H      2.5532760458   0.4127972338   0.3596694704
H      1.5949630139  -1.8624455836  -0.1176481465
H     -0.9955838380  -1.5499895760  -1.4351765643
H     -2.2851791206  -0.0584445519  -0.1522085303
H     -0.9339807706   2.4634932102  -0.4079457954
C     -0.3543962574   0.0089921424   1.1427376074
H     -0.7103785201  -0.7551515932   1.8642184865
13
Frame written by nebterpolator, Wed Mar  2 09:56:20 2022
C      1.5013758501   0.3226617250   0.0307236040
C      0.9061880738  -1.0169044052  -0.2864147325
C     -0.4422019934  -1.1642487351  -0.5893977109
C     -1.2209203015   0.2208806220   0.0010714685
C     -0.4835470123   1.4644302431  -0.3144174461
N      0.8372711870   1.5057551472  -0.1083811621
H      2.5324652763   0.4026438621   0.3951733937
H      1.5776720157  -1.8711493708  -0.1204177503
H     -0.9865334817  -1.5395201601  -1.4695300344
H     -2.2757269607  -0.0744835652  -0.1343738496
H     -0.9417384850   2.4615696153  -0.4261622708
C     -0.3322904888   0.0273086601   1.1468153454
H     -0.6720136795  -0.7389436384   1.8753111451
13
Frame written by nebterpolator, Wed Mar  2 09:56:20 2022
C      1.4832317076   0.3143236287   0.0497541732
C      0.8912105952  -1.0198393017  -0.2880263165
C     -0.4408522346  -1.1575925070  -0.6125799379
C     -1.2111759564   0.2177898076   0.0050035468
C     -0.4861472575   1.4659528060  -0.3232671683
N      0.8309435295   1.5067626714  -0.1106508254
H      2.5103109993   0.3896718489   0.4302444023
H      1.5627692589  -1.8770950250  -0.1262117691
H     -0.9765456716  -1.5291601500  -1.5008795861
H     -2.2655525633  -0.0883563451  -0.1171271112
H     -0.9489023548   2.4594207893  -0.4451736606
C     -0.3121718795   0.0429647699   1.1520051787
H     -0.6371181727  -0.7248429931   1.8869090741
13
Frame written by nebterpolator, Wed Mar  2 09:56:20 2022
C      1.4646137753   0.3033427404   0.0687680307
C      0.8814885500  -1.0192664647  -0.2897487347
C     -0.4412877232  -1.1486670569  -0.6335423677
C     -1.2012992030   0.2144895759   0.0089850273
C     -0.4878978193   1.4668377245  -0.3324543125
N      0.8240948540   1.5069635176  -0.1151186053
H      2.4876869853   0.3753976623   0.4645166185
H      1.5529658682  -1.8795682174  -0.1342765379
H     -0.9694038810  -1.5182914985  -1.5281753912
H     -2.2556533749  -0.0990455663  -0.0998330501
H     -0.9548444925   2.4566660409  -0.4650292849
C     -0.2944012483   0.0548537721   1.1576439382
H     -0.6060622906  -0.7137122298   1.8982646695
13
Frame written by nebterpolator, Wed Mar  2 09:56:20 2022
C      1.4460623390   0.2927720461   0.0886976807
C      0.8756029875  -1.0178091322  -0.2924642356
C     -0.4438797299  -1.1387311482  -0.6526351135
C     -1.1911430286   0.2109615868   0.0129799459
C     -0.4885438629   1.4667015981  -0.3423431456
N      0.8177472361   1.5066567096  -0.1208953507
H      2.4646605753   0.3625187930   0.4990620084
H      1.5468110217  -1.8805331306  -0.1450588025
H     -0.9657365606  -1.5072802876  -1.5516683184
H     -2.2460630188  -0.1061933826  -0.0820406495
H     -0.9595012235   2.4527626089  -0.4867030733
C     -0.2783446413   0.0633803601   1.1636789360
H     -0.5776720940  -0.7052066215   1.9093901182
13
Frame written by nebterpolator, Wed Mar  2 09:56:20 2022
C      1.4274473890   0.2845445161   0.1101712338
C      0.8705545926  -1.0169457116  -0.2968551673
C     -0.4464013035  -1.1284599033  -0.6696134469
C     -1.1804722701   0.2074742069   0.0168088431
C     -0.4881643382   1.4655990215  -0.3526530090
N      0.8130619889   1.5062551711  -0.1269730445
H      2.4412532462   0.3519435150   0.5341331618
H      1.5419869873  -1.8813175453  -0.1599228218
H     -0.9635187450  -1.4973692198  -1.5710966645
H     -2.2366399335  -0.1096255103  -0.0644286809
H     -0.9631645709   2.4474573408  -0.5105200444
C     -0.2640070504   0.0693216891   1.1703949217
H     -0.5519359924  -0.6988775701   1.9205547189
13
Frame written by nebterpolator, Wed Mar  2 09:56:20 2022
C      1.4088394505   0.2783643436   0.1329622584
C      0.8660910960  -1.0165009048  -0.3027058841
C     -0.4486119730  -1.1180118879  -0.6845887505
C     -1.1695803071   0.2040780062   0.0204211134
C     -0.4870261125   1.4636901398  -0.3631378196
N      0.8102127481   1.5057069276  -0.1331261101
H      2.4176527311   0.3432007885   0.5695781950
H      1.5383786953  -1.8817083181  -0.1786792189
H     -0.9624436249  -1.4888676210  -1.5867064659
H     -2.2275851552  -0.1097550676  -0.0471737945
H     -0.9660682283   2.4408554244  -0.5361097601
C     -0.2512664064   0.0732826714   1.1776092485
H     -0.5285929137  -0.6943345022   1.9316569883
13
Frame written by nebterpolator, Wed Mar  2 09:56:20 2022
C      1.3902112785   0.2737192787   0.1568716317
C      0.8623422273  -1.0161477026  -0.3097855021
C     -0.4504768143  -1.1073894810  -0.6976313418
C     -1.1586998201   0.2007838619   0.0237931961
C     -0.4852267372   1.4611394181  -0.3736130735
N      0.8090881062   1.5049627338  -0.1392810127
H      2.3939435884   0.3357767144   0.6052545853
H      1.5362169263  -1.8813040726  -0.2012299596
H     -0.9624457264  -1.4820218919  -1.5985713651
H     -2.2190603961  -0.1068271534  -0.0303879797
H     -0.9682758637   2.4330659517  -0.5632086006
C     -0.2400800356   0.0756073930   1.1851919597
H     -0.5075367332  -0.6913650503   1.9425974624
13
Frame written by nebterpolator, Wed Mar  2 09:56:20 2022
C      1.3713563210   0.2695631776   0.1816041187
C      0.8596515633  -1.0151124470  -0.3177156943
C     -0.4518145936  -1.0962983050  -0.7087342384
C     -1.1480530568   0.1976136186   0.0269058480
C     -0.4828836830   1.4581790682  -0.3838423260
N      0.8094409839   1.5039095054  -0.1455637225
H      2.3701158984   0.3286734357   0.6409195418
H      1.5360149653  -1.8793135646  -0.2275862944
H     -0.9633136306  -1.4770571145  -1.6066286947
H     -2.2112100073  -0.1010427247  -0.0142553608
H     -0.9698385232   2.4242607940  -0.5914857796
C     -0.2305478349   0.0765265138   1.1930486706
H     -0.4889184024  -0.6899019575   1.9533339316
13
Frame written by nebterpolator, Wed Mar  2 09:56:20 2022
C      1.3521325110   0.2653632519   0.2070480799
C      0.8581725085  -1.0130668823  -0.3263077499
C     -0.4525563231  -1.0846834320  -0.7178731451
C     -1.1378006352   0.1945748644   0.0297281226
C     -0.4798509179   1.4550299212  -0.3936585676
N      0.8109342028   1.5025792771  -0.1519093101
H      2.3461549333   0.3214213430   0.6764650258
H      1.5381263213  -1.8751699634  -0.2580037018
H     -0.9650035695  -1.4744470777  -1.6106157854
H     -2.2041592466  -0.0923862133   0.0010586347
H     -0.9705890183   2.4145378645  -0.6208594900
C     -0.2227289530   0.0761817328   1.2011223183
H     -0.4728318133  -0.6899346861   1.9638055685
13
Frame written by nebterpolator, Wed Mar  2 09:56:20 2022
C      1.3325336102   0.2609762611   0.2331656617
C      0.8578388513  -1.0100439912  -0.3354694559
C     -0.4527523174  -1.0726643520  -0.7251626888
C     -1.1280904090   0.1916811096   0.0322279109
C     -0.4759894958   1.4518906153  -0.4029450758
N      0.8133563819   1.5010680457  -0.1580927835
H      2.3220937793   0.3138856072   0.7118834462
H      1.5426154440  -1.8685382214  -0.2926744103
H     -0.9675051953  -1.4747591671  -1.6103378247
H     -2.1979904196  -0.0808630417   0.0154441491
H     -0.9703763871   2.4039496360  -0.6513191714
C     -0.2165731887   0.0747709328   1.2093548345
H     -0.4591606540  -0.6913534342   1.9739254079
13
Frame written by nebterpolator, Wed Mar  2 09:56:20 2022
C      1.3126471027   0.2563153358   0.2598157150
C      0.8583975056  -1.0062202931  -0.3450205587
C     -0.4525379209  -1.0603811002  -0.7309965619
C     -1.1190007946   0.1889498706   0.0344138170
C     -0.4714128495   1.4489211946  -0.4116700863
N      0.8165765729   1.4994449255  -0.1639561651
H      2.2979908050   0.3059495063   0.7471854594
H      1.5491371072  -1.8594262154  -0.3311362657
H     -0.9706197602  -1.4780812981  -1.6062163369
H     -2.1926447360  -0.0668678374   0.0289458942
H     -0.9692921351   2.3926349761  -0.6826757576
C     -0.2118028615   0.0726227476   1.2176563525
H     -0.4474380355  -0.6938618124   1.9836544941
13
Frame written by nebterpolator, Wed Mar  2 09:56:20 2022
C      1.2931597811   0.2514501931   0.2860490879
C      0.8596243930  -1.0018819824  -0.3544956528
C     -0.4520364602  -1.0483656902  -0.7354589155
C     -1.1108939511   0.1864885758   0.0362244646
C     -0.4663640254   1.4463442071  -0.4195310836
N      0.8204046467   1.4978041176  -0.1692236473
H      2.2746480190   0.2977671157   0.7812383826
H      1.5572067579  -1.8480757585  -0.3718147312
H     -0.9740276204  -1.4843365487  -1.5986920661
H     -2.1882514076  -0.0510943849   0.0411785259
H     -0.9674311602   2.3810490808  -0.7137962443
C     -0.2083615455   0.0700112766   1.2257019707
H     -0.4376774273  -0.6971602022   1.9926199090
13
Frame written by nebterpolator, Wed Mar  2 09:56:20 2022
C      1.2749058787   0.2465494131   0.3106883120
C      0.8612225509  -0.9974466744  -0.3633480292
C     -0.4514057478  -1.0372871689  -0.7386828515
C     -1.1040749436   0.1843906496   0.0376396224
C     -0.4612022040   1.4443257155  -0.4262724153
N      0.8245308383   1.4962370137  -0.1736999340
H      2.2530151932   0.2896539469   0.8126749650
H      1.5660647143  -1.8351756571  -0.4123710753
H     -0.9773129762  -1.4928369960  -1.5887735981
H     -2.1848603664  -0.0346028977   0.0518138533
H     -0.9650017706   2.3697962493  -0.7432502040
C     -0.2060834597   0.0672407547   1.2331213217
H     -0.4297977071  -0.7008443486   2.0004600332
13
Frame written by nebterpolator, Wed Mar  2 09:56:20 2022
C      1.2577363920   0.2415892632   0.3338686395
C      0.8630011836  -0.9931083486  -0.3715558955
C     -0.4507514513  -1.0272136760  -0.7409674956
C     -1.0983801679   0.1826111099   0.0387499264
C     -0.4560358705   1.4428370855  -0.4320778695
N      0.8288285088   1.4947301393  -0.1775231568
H      2.2328602760   0.2815910432   0.8418298883
H      1.5753536333  -1.8209961428  -0.4524013506
H     -0.9802727446  -1.5029700997  -1.5772153189
H     -2.1822704246  -0.0176899943   0.0611806358
H     -0.9621356869   2.3588973460  -0.7711704414
C     -0.2046455380   0.0644462953   1.2399522202
H     -0.4232881099  -0.7047240209   2.0073302181
13
Frame written by nebterpolator, Wed Mar  2 09:56:20 2022
C      1.2413719197   0.2365267992   0.3559097323
C      0.8648673672  -0.9889667546  -0.3792179816
C     -0.4501257701  -1.0181147825  -0.7425244478
C     -1.0936128967   0.1810898119   0.0396498196
C     -0.4508969075   1.4418149678  -0.4371548174
N      0.8332419542   1.4932456270  -0.1808587764
H      2.2138115097   0.2735222176   0.8692246369
H      1.5849004448  -1.8056574910  -0.4919407086
H     -0.9828058667  -1.5142732089  -1.5645247128
H     -2.1802958270  -0.0004201883   0.0696347049
H     -0.9589058479   2.3482547324  -0.7979289408
C     -0.2038122036   0.0616807603   1.2462996988
H     -0.4177378762  -0.7087024909   2.0134317929
13
Frame written by nebterpolator, Wed Mar  2 09:56:20 2022
C      1.2255822064   0.2313412415   0.3771037875
C      0.8667301406  -0.9851823504  -0.3864684854
C     -0.4494728724  -1.0100306515  -0.7435409975
C     -1.0896367715   0.1797779521   0.0404117378
C     -0.4457715815   1.4412645783  -0.4416657764
N      0.8376586298   1.4918124753  -0.1838402912
H      2.1954930842   0.2654345777   0.8952216853
H      1.5944568491  -1.7892228402  -0.5310344616
H     -0.9847189149  -1.5263920081  -1.5510413973
H     -2.1787268266   0.0171908766   0.0774059954
H     -0.9552761881   2.3377506940  -0.8237942208
C     -0.2034365293   0.0589597787   1.2523048114
H     -0.4128812258  -0.7127043241   2.0189376128
13
Frame written by nebterpolator, Wed Mar  2 09:56:20 2022
C      1.2101817197   0.2260225875   0.3976821445
C      0.8685325755  -0.9818694433  -0.3934431402
C     -0.4487222693  -1.0029873254  -0.7441590165
C     -1.0863492402   0.1786362188   0.0410936534
C     -0.4406348955   1.4411962488  -0.4457310220
N      0.8419792147   1.4904620608  -0.1865704068
H      2.1776013053   0.2573286495   0.9200876279
H      1.6038275910  -1.7717453009  -0.5697195608
H     -0.9858661548  -1.5390753255  -1.5369989212
H     -2.1773915994   0.0351488190   0.0846582679
H     -0.9511950387   2.3272827931  -0.8489707263
C     -0.2034254462   0.0562784817   1.2580934687
H     -0.4085377622  -0.7166784639   2.0239776315
13
Frame written by nebterpolator, Wed Mar  2 09:56:20 2022
C      1.1950253302   0.2205645029   0.4178008617
C      0.8702653965  -0.9790496790  -0.4002569188
C     -0.4478409247  -0.9969624825  -0.7444618891
C     -1.0836658214   0.1776329413   0.0417448955
C     -0.4354708961   1.4415907751  -0.4494342338
N      0.8461536480   1.4891921861  -0.1891255589
H      2.1599398493   0.2492024919   0.9440317090
H      1.6129338740  -1.7532900457  -0.6080147587
H     -0.9862136594  -1.5521515294  -1.5225717651
H     -2.1761872670   0.0534646689   0.0915280006
H     -0.9466457825   2.3167811345  -0.8736252643
C     -0.2037175374   0.0536224840   1.2637489288
H     -0.4045762096  -0.7205974481   2.0286359931
13
Frame written by nebterpolator, Wed Mar  2 09:56:20 2022
C      1.1799683180   0.2149317422   0.4375733306
C      0.8718955118  -0.9768463349  -0.4070461541
C     -0.4467287535  -0.9921237423  -0.7445053512
C     -1.0816113477   0.1767546579   0.0424175164
C     -0.4302284437   1.4425403263  -0.4527978615
N      0.8500499898   1.4880427115  -0.1915577057
H      2.1422845497   0.2410557282   0.9671062799
H      1.6216027977  -1.7337474163  -0.6458716641
H     -0.9855335600  -1.5655321702  -1.5078529614
H     -2.1749933319   0.0722404148   0.0980797113
H     -0.9414692820   2.3061423718  -0.8978486913
C     -0.2043122279   0.0509576560   1.2693762307
H     -0.4009242203  -0.7244159451   2.0329273204
13
Frame written by nebterpolator, Wed Mar  2 09:56:20 2022
C      1.1647590495   0.2091029491   0.4572556672
C      0.8733442920  -0.9753279207  -0.4140112788
C     -0.4452446296  -0.9884637514  -0.7444421712
C     -1.0801010244   0.1759443953   0.0431715461
C     -0.4247717280   1.4441085770  -0.4559089800
N      0.8533875902   1.4871146539  -0.1939568296
H      2.1242850828   0.2329139244   0.9895092369
H      1.6296396939  -1.7132117122  -0.6833371441
H     -0.9836503340  -1.5790921383  -1.4929572952
H     -2.1736036538   0.0915242150   0.1044025949
H     -0.9354622878   2.2952622988  -0.9218185334
C     -0.2051552861   0.0481896271   1.2751901275
H     -0.3974267646  -0.7280651180   2.0369030596
13
Frame written by nebterpolator, Wed Mar  2 09:56:20 2022
C      1.1490078934   0.2030130790   0.4771568019
C      0.8743724937  -0.9746410025  -0.4212597436
C     -0.4431950847  -0.9859982954  -0.7443908113
C     -1.0789579119   0.1750927394   0.0440846587
C     -0.4186152713   1.4464108841  -0.4588266502
N      0.8552472606   1.4866615198  -0.1964621390
H      2.1056180690   0.2249216755   1.0113864931
H      1.6368367656  -1.6918781871  -0.7205217366
H     -0.9803553872  -1.5927337821  -1.4779546748
H     -2.1718050254   0.1113360149   0.1105021456
H     -0.9281164095   2.2841845734  -0.9457254260
C     -0.2061357070   0.0450852641   1.2815078065
H     -0.3939016853  -0.7314544831   2.0405032759
13
Frame written by nebterpolator, Wed Mar  2 09:56:20 2022
C      1.1326004425   0.1966492893   0.4973574334
C      0.8749444549  -0.9747462371  -0.4288231176
C     -0.4405663070  -0.9846512123  -0.7443736732
C     -1.0781028463   0.1741632754   0.0451824777
C     -0.4116409541   1.4494301703  -0.4615773468
N      0.8554198912   1.4867191898  -0.1991169702
H      2.0862256904   0.2171114727   1.0328263946
H      1.6432175145  -1.6698640850  -0.7574610558
H     -0.9756956947  -1.6064198227  -1.4628903435
H     -2.1695650381   0.1316633214   0.1164127229
H     -0.9193477781   2.2729349611  -0.9696524698
C     -0.2072108923   0.0415778930   1.2884010723
H     -0.3902784829  -0.7345682158   2.0437148760
13
Frame written by nebterpolator, Wed Mar  2 09:56:20 2022
C      1.1156237175   0.1900586411   0.5178193197
C      0.8751588237  -0.9754551037  -0.4366741806
C     -0.4374722445  -0.9841834761  -0.7443892301
C     -1.0774696996   0.1731625352   0.0464423761
C     -0.4039982870   1.4530200221  -0.4642001911
N      0.8542182412   1.4871804007  -0.2019038586
H      2.0662209235   0.2094438594   1.0539456841
H      1.6489608890  -1.6473261387  -0.7941925843
H     -0.9699538381  -1.6201299538  -1.4478011624
H     -2.1669597854   0.1524182662   0.1221976193
H     -0.9094223615   2.2615355344  -0.9936283170
C     -0.2083580281   0.0377277222   1.2957778026
H     -0.3865483508  -0.7374523090   2.0466067223
13
Frame written by nebterpolator, Wed Mar  2 09:56:20 2022
C      1.0984280998   0.1833698482   0.5383745806
C      0.8752620403  -0.9764411698  -0.4447151440
C     -0.4341580857  -0.9841728305  -0.7444337796
C     -1.0770136966   0.1721538520   0.0477733834
C     -0.3961764528   1.4568939510  -0.4667576251
N      0.8526068123   1.4877831580  -0.2047264531
H      2.0458961776   0.2017927456   1.0748897167
H      1.6543758370  -1.6244571172  -0.8307698462
H     -0.9636497254  -1.6338623538  -1.4326992095
H     -2.1641722463   0.1734137747   0.1279384290
H     -0.8990312387   2.2499896698  -1.0175988039
C     -0.2095794365   0.0337633389   1.3033542732
H     -0.3827880851  -0.7402268669   2.0493704784
