13   
Frame written by nebterpolator, Wed Mar  2 08:10:41 2022
C        1.4686732685    0.4434648827   -0.3530738584
C        0.8844898150   -0.7852997800    0.2158355540
C       -0.7449175472   -0.8064664611    0.1739773918
C       -1.3117588051    0.4547650255   -0.3303380734
C       -0.5481144770    1.5423396026   -0.5757289614
N        0.8460300516    1.5355555592   -0.6348741906
H        2.5303145794    0.3995219587   -0.6079325517
H        1.4411642486   -1.6994013932    0.0000858207
H       -1.2584586499   -1.7272652578   -0.1086158969
H       -2.3826894973    0.4875523101   -0.5153848406
H       -1.0043020908    2.4797194493   -0.8832408489
C        0.0350901728   -0.7972998302    1.4092860838
H        0.0444789317   -1.5271860652    2.2100043717
13   
Frame written by nebterpolator, Wed Mar  2 08:10:41 2022
C        1.4707524049    0.4218907660   -0.3728027763
C        0.8873034552   -0.7847542093    0.1743644694
C       -0.7332563867   -0.8093392957    0.1219423633
C       -1.3024687101    0.4282699451   -0.3375125238
C       -0.5417554805    1.5352412523   -0.5632750687
N        0.8431574118    1.5338674346   -0.6375472057
H        2.5431104733    0.3918720657   -0.5951874986
H        1.4503810539   -1.7079781265    0.0053178108
H       -1.2558239579   -1.7428685265   -0.1112018748
H       -2.3855719159    0.4698342889   -0.4828217165
H       -1.0114012866    2.4832826946   -0.8362373036
C        0.0442477562   -0.7231016567    1.4362679636
H       -0.0086748177   -1.4962166324    2.1986933609
13   
Frame written by nebterpolator, Wed Mar  2 08:10:41 2022
C        1.4706246417    0.4044833621   -0.3913798429
C        0.8807832800   -0.7879001027    0.1333077981
C       -0.7127440564   -0.8160505596    0.0716592275
C       -1.2925734934    0.4059109663   -0.3423768341
C       -0.5367023740    1.5270305869   -0.5517660213
N        0.8423813118    1.5306567228   -0.6376311546
H        2.5521101739    0.3858080911   -0.5842086768
H        1.4525602767   -1.7175295681    0.0097370541
H       -1.2458753295   -1.7594273770   -0.1128791279
H       -2.3849159383    0.4528831642   -0.4517544722
H       -1.0169044532    2.4841406450   -0.7895088221
C        0.0531407004   -0.6476763628    1.4642486015
H       -0.0618847396   -1.4623295683    2.1825522707
13   
Frame written by nebterpolator, Wed Mar  2 08:10:41 2022
C        1.4692043923    0.3909903161   -0.4068188360
C        0.8686076585   -0.7956904716    0.0922842039
C       -0.6880480435   -0.8275243970    0.0235608975
C       -1.2834871811    0.3873953331   -0.3442428283
C       -0.5330186871    1.5170540903   -0.5402661948
N        0.8434900901    1.5249256531   -0.6339786306
H        2.5573023147    0.3817706113   -0.5737037056
H        1.4496537178   -1.7280937191    0.0100209883
H       -1.2314340153   -1.7766766589   -0.1158793607
H       -2.3811236448    0.4371875713   -0.4229175026
H       -1.0199163090    2.4813065073   -0.7433710188
C        0.0612295040   -0.5722335450    1.4908861111
H       -0.1124597966   -1.4204112908    2.1644258765
13   
Frame written by nebterpolator, Wed Mar  2 08:10:41 2022
C        1.4679740126    0.3788470103   -0.4176693590
C        0.8563705609   -0.8078950533    0.0506795115
C       -0.6655372298   -0.8433559025   -0.0224373922
C       -1.2761550547    0.3700030465   -0.3436982946
C       -0.5294414651    1.5066245191   -0.5267673009
N        0.8445759204    1.5182781993   -0.6263545125
H        2.5603645809    0.3782066049   -0.5617942744
H        1.4449918994   -1.7402314683    0.0035444014
H       -1.2167527695   -1.7948866230   -0.1224302853
H       -2.3763051896    0.4216435577   -0.3969745174
H       -1.0204749420    2.4762623385   -0.6973692657
C        0.0678507288   -0.4979764958    1.5114500127
H       -0.1574610523   -1.3655197333    2.1498212766
13   
Frame written by nebterpolator, Wed Mar  2 08:10:41 2022
C        1.4678923786    0.3670157408   -0.4235942452
C        0.8481056962   -0.8229365851    0.0088945862
C       -0.6494183155   -0.8615946772   -0.0659740555
C       -1.2709190960    0.3520197506   -0.3408422612
C       -0.5254426671    1.4960729293   -0.5107948972
N        0.8455430978    1.5110266201   -0.6152289107
H        2.5629330242    0.3745747518   -0.5476908404
H        1.4414415931   -1.7539670261   -0.0099698323
H       -1.2052430037   -1.8136311333   -0.1328700701
H       -2.3719275617    0.4057037627   -0.3731966643
H       -1.0194164432    2.4696510228   -0.6525986702
C        0.0728271989   -0.4249093376    1.5237830150
H       -0.1963759018   -1.2990258187    2.1400828460
13   
Frame written by nebterpolator, Wed Mar  2 08:10:41 2022
C        1.4683399709    0.3560645650   -0.4246749839
C        0.8407745213   -0.8403247215   -0.0314693860
C       -0.6363934372   -0.8813709320   -0.1051695025
C       -1.2665148361    0.3337858973   -0.3350884310
C       -0.5206343052    1.4866601320   -0.4929334586
N        0.8463700996    1.5050292579   -0.6012094666
H        2.5651063170    0.3700273649   -0.5320065085
H        1.4368583612   -1.7700376667   -0.0286164770
H       -1.1946847305   -1.8333157962   -0.1453824530
H       -2.3677634267    0.3886418261   -0.3513138887
H       -1.0176556051    2.4623919402   -0.6107345948
C        0.0755620141   -0.3529981289    1.5256262375
H       -0.2293649432   -1.2245537381    2.1329729131
13   
Frame written by nebterpolator, Wed Mar  2 08:10:41 2022
C        1.4691778221    0.3464045459   -0.4224163251
C        0.8334349988   -0.8592356366   -0.0700890136
C       -0.6247611595   -0.9021364220   -0.1404389197
C       -1.2621420456    0.3154414768   -0.3261356984
C       -0.5149359263    1.4782632143   -0.4745183873
N        0.8472551975    1.5004233218   -0.5862669245
H        2.5671100092    0.3652928528   -0.5148841419
H        1.4310795421   -1.7877930432   -0.0497815077
H       -1.1841570765   -1.8538919423   -0.1585173935
H       -2.3633775258    0.3707980492   -0.3290373633
H       -1.0154748852    2.4547204273   -0.5722121969
C        0.0756434097   -0.2818402721    1.5182318248
H       -0.2588523606   -1.1464465717    2.1260660471
13   
Frame written by nebterpolator, Wed Mar  2 08:10:41 2022
C        1.4702975074    0.3378003321   -0.4174693305
C        0.8264567952   -0.8787970305   -0.1066920090
C       -0.6138691684   -0.9236773555   -0.1721461740
C       -1.2572058893    0.2974354956   -0.3131566367
C       -0.5085225135    1.4704560938   -0.4564263444
N        0.8480173397    1.4968819406   -0.5721296848
H        2.5690924067    0.3607121052   -0.4960779958
H        1.4248570795   -1.8063424420   -0.0718201294
H       -1.1732800690   -1.8754030834   -0.1717957412
H       -2.3583184582    0.3528460691   -0.3040753102
H       -1.0130930290    2.4465809655   -0.5374762527
C        0.0723210269   -0.2116358800    1.5013682065
H       -0.2867530281   -1.0668572105    2.1178974023
13   
Frame written by nebterpolator, Wed Mar  2 08:10:41 2022
C        1.4715327875    0.3302237168   -0.4104445944
C        0.8206054648   -0.8978057212   -0.1401447976
C       -0.6031845417   -0.9461049805   -0.2001567760
C       -1.2509798461    0.2802873795   -0.2940071139
C       -0.5013272988    1.4630944711   -0.4398404627
N        0.8485193155    1.4940135493   -0.5611930250
H        2.5711355095    0.3568222548   -0.4756275454
H        1.4194865011   -1.8242826940   -0.0923828573
H       -1.1615036114   -1.8982430893   -0.1851931207
H       -2.3518932644    0.3355378868   -0.2726214428
H       -1.0104067630    2.4380996765   -0.5079112413
C        0.0635503657   -0.1440221524    1.4731362410
H       -0.3155346189   -0.9876202974    2.1063867362
13   
Frame written by nebterpolator, Wed Mar  2 08:10:41 2022
C        1.4731171919    0.3242805568   -0.4029356460
C        0.8174831744   -0.9142342131   -0.1667526152
C       -0.5922991926   -0.9696560874   -0.2235084191
C       -1.2422088142    0.2652980306   -0.2643977440
C       -0.4932364589    1.4565747387   -0.4272419944
N        0.8484349951    1.4918630899   -0.5579072103
H        2.5735891603    0.3550075332   -0.4551213779
H        1.4174603739   -1.8389225120   -0.1059886174
H       -1.1483668206   -1.9228453606   -0.1998375410
H       -2.3427251899    0.3205256736   -0.2277928911
H       -1.0072588631    2.4298074273   -0.4872821389
C        0.0448244810   -0.0854378247    1.4307476945
H       -0.3488140371   -0.9122610524    2.0880185010
13   
Frame written by nebterpolator, Wed Mar  2 08:10:41 2022
C        1.4775675813    0.3263040926   -0.4004106001
C        0.8174349726   -0.9262211799   -0.1767700974
C       -0.5819521513   -0.9933842280   -0.2386638066
C       -1.2292310999    0.2560206697   -0.2203481453
C       -0.4850461717    1.4518075898   -0.4235629738
N        0.8498223520    1.4913491316   -0.5690745574
H        2.5779030218    0.3612624085   -0.4421568508
H        1.4203712943   -1.8467016617   -0.1001667136
H       -1.1355403739   -1.9473878334   -0.2179280334
H       -2.3288030141    0.3121612271   -0.1631327032
H       -1.0044426611    2.4224991188   -0.4840114729
C        0.0105575226   -0.0537520549    1.3757390897
H       -0.3886412726   -0.8539572801    2.0604868649
13   
Frame written by nebterpolator, Wed Mar  2 08:10:41 2022
C        1.4875950464    0.3435661528   -0.4090857847
C        0.8173764418   -0.9328009961   -0.1623408658
C       -0.5746430788   -1.0125371620   -0.2426233170
C       -1.2132134067    0.2556761586   -0.1698879493
C       -0.4790896575    1.4497564740   -0.4312998112
N        0.8560944908    1.4935747258   -0.5950862652
H        2.5851171300    0.3803785329   -0.4474132134
H        1.4250606714   -1.8459306144   -0.0663990087
H       -1.1273809540   -1.9654091037   -0.2397863117
H       -2.3111287673    0.3142613934   -0.0892974364
H       -1.0041133843    2.4169713794   -0.5019014412
C       -0.0334026963   -0.0650831263    1.3235879700
H       -0.4282718354   -0.8324238145    2.0315334347
13   
Frame written by nebterpolator, Wed Mar  2 08:10:41 2022
C        1.4955956867    0.3565274385   -0.4221032406
C        0.8224502371   -0.9244330370   -0.1332257193
C       -0.5701884659   -1.0210522134   -0.2420553257
C       -1.1976564489    0.2619134613   -0.1244113691
C       -0.4763971172    1.4513723353   -0.4444084889
N        0.8584865058    1.4959911119   -0.6285140059
H        2.5911597309    0.3940394915   -0.4655061830
H        1.4345394528   -1.8313945953   -0.0171550801
H       -1.1215469735   -1.9736859002   -0.2676415791
H       -2.2937666789    0.3225410219   -0.0212293484
H       -1.0067930108    2.4145272834   -0.5290160322
C       -0.0740148502   -0.1040457677    1.2830000500
H       -0.4618680679   -0.8423006302    2.0122663225
13   
Frame written by nebterpolator, Wed Mar  2 08:10:41 2022
C        1.4983229844    0.3563614165   -0.4325397452
C        0.8337548622   -0.9027148651   -0.1008096701
C       -0.5671232064   -1.0224032719   -0.2424098948
C       -1.1833140332    0.2705280034   -0.0839558521
C       -0.4753618893    1.4558953597   -0.4575178073
N        0.8534511381    1.4973271621   -0.6633742131
H        2.5944839024    0.3945322665   -0.4863694799
H        1.4491121101   -1.8061052732    0.0347448268
H       -1.1151198007   -1.9765033200   -0.3019643675
H       -2.2776789841    0.3320295018    0.0409371445
H       -1.0111409403    2.4144563951   -0.5564530890
C       -0.1099963976   -0.1517001013    1.2472572849
H       -0.4893897456   -0.8617032736    2.0024548628
13   
Frame written by nebterpolator, Wed Mar  2 08:10:41 2022
C        1.4995670638    0.3534066379   -0.4416615464
C        0.8448486842   -0.8770862641   -0.0668018149
C       -0.5659607703   -1.0223147767   -0.2438358815
C       -1.1697057135    0.2792624667   -0.0473501312
C       -0.4743685913    1.4620595092   -0.4690078620
N        0.8468692602    1.4984909463   -0.6962761344
H        2.5968010446    0.3899892822   -0.5099860925
H        1.4627631076   -1.7775620018    0.0879862498
H       -1.1094837372   -1.9769825884   -0.3422466402
H       -2.2621068983    0.3416405342    0.0982751890
H       -1.0162934913    2.4150945542   -0.5829072171
C       -0.1438376497   -0.2060213108    1.2118121074
H       -0.5090923089   -0.8799769888    2.0019997742
13   
Frame written by nebterpolator, Wed Mar  2 08:10:41 2022
C        1.5015061697    0.3562222001   -0.4506007324
C        0.8507160163   -0.8541887470   -0.0314665954
C       -0.5679302103   -1.0254572945   -0.2460815067
C       -1.1567585692    0.2863429796   -0.0140034614
C       -0.4712075492    1.4690037523   -0.4776822954
N        0.8430306163    1.4999528214   -0.7236636135
H        2.5986742888    0.3870180960   -0.5379056302
H        1.4712433332   -1.7508115623    0.1418271771
H       -1.1060776654   -1.9772352716   -0.3890975607
H       -2.2467805213    0.3510128328    0.1506725719
H       -1.0204792429    2.4153626578   -0.6081056831
C       -0.1779456435   -0.2684411192    1.1734602427
H       -0.5179910225   -0.8887813452    2.0126470870
13   
Frame written by nebterpolator, Wed Mar  2 08:10:41 2022
C        1.5041310563    0.3659920613   -0.4594567631
C        0.8514484373   -0.8352815529    0.0051339802
C       -0.5724548945   -1.0323205253   -0.2482858142
C       -1.1445312070    0.2921186869    0.0173397055
C       -0.4656729950    1.4756109895   -0.4836298558
N        0.8426019526    1.5015104412   -0.7437450916
H        2.5993261136    0.3869059432   -0.5710972650
H        1.4749409190   -1.7270369104    0.1940105620
H       -1.1040304865   -1.9770509389   -0.4412601435
H       -2.2319515782    0.3604319710    0.1975137912
H       -1.0231853225    2.4140021051   -0.6334808650
C       -0.2122096320   -0.3358473959    1.1363449815
H       -0.5184123631   -0.8890348747    2.0306127778
13   
Frame written by nebterpolator, Wed Mar  2 08:10:41 2022
C        1.5067828502    0.3775446129   -0.4671517559
C        0.8508312243   -0.8173108751    0.0434839491
C       -0.5784316558   -1.0412987735   -0.2502335269
C       -1.1332666371    0.2982528298    0.0484448036
C       -0.4596781205    1.4820267616   -0.4876343416
N        0.8433122646    1.5031831384   -0.7576735864
H        2.5970901173    0.3856186229   -0.6094731068
H        1.4767443969   -1.7033064162    0.2432984326
H       -1.1007450435   -1.9740283717   -0.4983044897
H       -2.2171365850    0.3703619532    0.2393604013
H       -1.0253653405    2.4097810657   -0.6609062670
C       -0.2455932467   -0.4048139987    1.1062395876
H       -0.5145442242   -0.8860105495    2.0505499002
13   
Frame written by nebterpolator, Wed Mar  2 08:10:41 2022
C        1.5107072432    0.3880441695   -0.4738859228
C        0.8512485892   -0.7993113927    0.0842614098
C       -0.5851166545   -1.0517563116   -0.2518629258
C       -1.1234025114    0.3060458735    0.0806716526
C       -0.4557746417    1.4887883047   -0.4907490025
N        0.8445770978    1.5056177195   -0.7679184430
H        2.5910862177    0.3813108416   -0.6526658427
H        1.4773674538   -1.6772509447    0.2899144705
H       -1.0940879741   -1.9657986116   -0.5586574059
H       -2.2007010955    0.3810145694    0.2772160877
H       -1.0282016964    2.4012973237   -0.6914159197
C       -0.2771465264   -0.4726029105    1.0874767099
H       -0.5105555017   -0.8853986308    2.0676151320
13   
Frame written by nebterpolator, Wed Mar  2 08:10:41 2022
C        1.5164092504    0.3970059750   -0.4801428518
C        0.8530348703   -0.7814248652    0.1267558406
C       -0.5920261475   -1.0630994478   -0.2532948765
C       -1.1147919436    0.3153463506    0.1138800816
C       -0.4545331516    1.4960737079   -0.4935870867
N        0.8463556059    1.5089947613   -0.7766774000
H        2.5822481034    0.3744660638   -0.6987457291
H        1.4770668176   -1.6490779175    0.3347268910
H       -1.0842922553   -1.9529504614   -0.6202086308
H       -2.1825301154    0.3920699476    0.3124775618
H       -1.0320484011    2.3892807785   -0.7240481721
C       -0.3068346106   -0.5381252990    1.0780556031
H       -0.5080580226   -0.8885595938    2.0808087689
