13
Frame written by nebterpolator, Thu Mar  3 01:40:28 2022
C      1.5360581838   0.4300917552  -0.3803367058
C      0.8437398609  -0.7972775747   0.0801986016
C     -0.5859840657  -1.0274911740  -0.3819403129
C     -1.1171137319   0.3117013152   0.1012930658
C     -0.4277233869   1.5419629907  -0.3563521428
N      0.8835531480   1.5723176511  -0.5867061993
H      2.6089057712   0.4191080093  -0.5624229367
H      1.4551752420  -1.6865592210   0.2246630577
H     -1.0692904091  -1.8717942217  -0.8535197564
H     -2.1914735373   0.3770133129   0.2647657020
H     -0.9907430647   2.4598855674  -0.5142812157
C     -0.3510370587  -0.6403404668   1.0056614644
H     -0.5940669521  -1.0886179431   1.9589773776
13
Frame written by nebterpolator, Thu Mar  3 01:40:28 2022
C      1.5273234431   0.4228351145  -0.3661757600
C      0.8400726303  -0.8132908449   0.0428149289
C     -0.5835889962  -1.0220215585  -0.3876870370
C     -1.1210747620   0.3049946590   0.0747886134
C     -0.4322245537   1.5390313144  -0.3562173477
N      0.8789815403   1.5725833701  -0.5859307862
H      2.6089775116   0.4159728656  -0.5079199576
H      1.4515335118  -1.7081632178   0.1965758501
H     -1.0830049675  -1.8883131678  -0.8104735127
H     -2.1986325789   0.3671234773   0.2547949015
H     -0.9985743224   2.4633434699  -0.4930270742
C     -0.3164544910  -0.5845069320   1.0012109277
H     -0.5733339653  -1.0695885499   1.9372462538
13
Frame written by nebterpolator, Thu Mar  3 01:40:28 2022
C      1.5187884768   0.4162602194  -0.3515685678
C      0.8361384915  -0.8298604432   0.0054829082
C     -0.5815276529  -1.0171674319  -0.3932503904
C     -1.1250240241   0.2984594796   0.0487822397
C     -0.4368431282   1.5362264695  -0.3563732650
N      0.8748735597   1.5728996013  -0.5854039988
H      2.6081532044   0.4132685953  -0.4530876633
H      1.4475102224  -1.7297387787   0.1681749463
H     -1.0964167938  -1.9040676046  -0.7666150218
H     -2.2051954805   0.3576157673   0.2451736412
H     -1.0062741541   2.4663687282  -0.4727281346
C     -0.2815820674  -0.5288091391   0.9973642981
H     -0.5526006536  -1.0514554629   1.9140490082
13
Frame written by nebterpolator, Thu Mar  3 01:40:28 2022
C      1.5107991750   0.4107264245  -0.3359910654
C      0.8319737044  -0.8477960479  -0.0321468087
C     -0.5804058728  -1.0139446015  -0.3988337676
C     -1.1293868657   0.2922156351   0.0236097765
C     -0.4418758251   1.5339492710  -0.3571859069
N      0.8715733697   1.5734332877  -0.5855840663
H      2.6052818669   0.4113394026  -0.3969085616
H      1.4425905501  -1.7507887667   0.1389320533
H     -1.1091747983  -1.9181417288  -0.7206841574
H     -2.2101770514   0.3488064769   0.2362841464
H     -1.0134712304   2.4683697150  -0.4540710078
C     -0.2461415494  -0.4733989750   0.9947742244
H     -0.5315854732  -1.0347700929   1.8878051412
13
Frame written by nebterpolator, Thu Mar  3 01:40:28 2022
C      1.5029364310   0.4063350932  -0.3186284776
C      0.8275436420  -0.8673620258  -0.0705664531
C     -0.5805454961  -1.0127668614  -0.4046975083
C     -1.1342068246   0.2863106682  -0.0004907738
C     -0.4472330937   1.5323453381  -0.3589378914
N      0.8690328839   1.5741224438  -0.5864809132
H      2.5994960513   0.4101811088  -0.3381475646
H      1.4366988978  -1.7712842013   0.1082308924
H     -1.1212547174  -1.9302362128  -0.6721047272
H     -2.2132563813   0.3408482913   0.2285509642
H     -1.0199679964   2.4692673462  -0.4378012231
C     -0.2098860113  -0.4184850191   0.9930326621
H     -0.5093573855  -1.0192759691   1.8580410135
13
Frame written by nebterpolator, Thu Mar  3 01:40:28 2022
C      1.4941240186   0.4039862780  -0.2982536514
C      0.8221529426  -0.8888609712  -0.1103587391
C     -0.5820211351  -1.0135865415  -0.4112192787
C     -1.1389651067   0.2806636589  -0.0231505768
C     -0.4522670571   1.5311536518  -0.3619110021
N      0.8673172798   1.5747004535  -0.5872795045
H      2.5901432587   0.4101454205  -0.2754009567
H      1.4297733398  -1.7924047938   0.0754228555
H     -1.1331429019  -1.9407487344  -0.6212660200
H     -2.2148561261   0.3337383032   0.2226590178
H     -1.0257519428   2.4694243920  -0.4252521912
C     -0.1726954983  -0.3647700061   0.9902298734
H     -0.4838110715  -1.0034411109   1.8257801739
13
Frame written by nebterpolator, Thu Mar  3 01:40:28 2022
C      1.4839970030   0.4036991460  -0.2752271988
C      0.8159630053  -0.9110171332  -0.1498514632
C     -0.5848180454  -1.0161582344  -0.4189809838
C     -1.1432464634   0.2754889370  -0.0429592060
C     -0.4563810067   1.5304034967  -0.3661140924
N      0.8662377790   1.5750293326  -0.5873674280
H      2.5774309974   0.4109701629  -0.2108290393
H      1.4221955828  -1.8134115138   0.0420543009
H     -1.1445448076  -1.9495090205  -0.5719011212
H     -2.2151163650   0.3275996610   0.2196075181
H     -1.0305142335   2.4691819900  -0.4177471414
C     -0.1367132449  -0.3159629690   0.9847082313
H     -0.4544902012  -0.9863138553   1.7946076239
13
Frame written by nebterpolator, Thu Mar  3 01:40:28 2022
C      1.4722126463   0.4038610869  -0.2503553597
C      0.8098484674  -0.9315729580  -0.1872384032
C     -0.5886463482  -1.0195863829  -0.4286172909
C     -1.1466820505   0.2711061087  -0.0588284275
C     -0.4594404138   1.5301911642  -0.3713814151
N      0.8650009364   1.5750076344  -0.5866888845
H      2.5620174392   0.4112413402  -0.1468440520
H      1.4148227072  -1.8327064658   0.0098921702
H     -1.1549452552  -1.9562848798  -0.5278394523
H     -2.2141382999   0.3224009726   0.2201797856
H     -1.0343284383   2.4689387560  -0.4158195959
C     -0.1036655677  -0.2746973129   0.9757160795
H     -0.4220558230  -0.9678990636   1.7678248458
13
Frame written by nebterpolator, Thu Mar  3 01:40:28 2022
C      1.4589829567   0.4038325654  -0.2238833894
C      0.8045897687  -0.9500886279  -0.2222321317
C     -0.5939610522  -1.0232328650  -0.4410055929
C     -1.1492525709   0.2675365666  -0.0706359442
C     -0.4617696782   1.5303268650  -0.3777494998
N      0.8634719879   1.5745586329  -0.5854431195
H      2.5443845531   0.4106859888  -0.0834308890
H      1.4080903185  -1.8500549193  -0.0204720997
H     -1.1649578960  -1.9610362392  -0.4904105106
H     -2.2119055630   0.3180246857   0.2248721588
H     -1.0375961160   2.4686061126  -0.4196057565
C     -0.0733980893  -0.2408826466   0.9635085288
H     -0.3866786193  -0.9482761188   1.7464882455
13
Frame written by nebterpolator, Thu Mar  3 01:40:28 2022
C      1.4453512576   0.4044466923  -0.1958994523
C      0.8015517827  -0.9671255736  -0.2545826991
C     -0.6025903376  -1.0268649327  -0.4574098167
C     -1.1510305923   0.2647727804  -0.0777975653
C     -0.4637192880   1.5302404903  -0.3855670352
N      0.8622517258   1.5734440957  -0.5836976547
H      2.5251282708   0.4105671955  -0.0204938035
H      1.4027026855  -1.8656954937  -0.0483040339
H     -1.1764001053  -1.9634055304  -0.4613401010
H     -2.2081516399   0.3148247397   0.2346856152
H     -1.0406619863   2.4674958233  -0.4303299366
C     -0.0458842984  -0.2149110147   0.9490649672
H     -0.3485474743  -0.9277892722   1.7316715159
13
Frame written by nebterpolator, Thu Mar  3 01:40:28 2022
C      1.4288510197   0.4014142041  -0.1666008545
C      0.7985539526  -0.9796170171  -0.2831174073
C     -0.6103690829  -1.0285787547  -0.4771741833
C     -1.1509360361   0.2633040508  -0.0801766044
C     -0.4655577897   1.5307118408  -0.3942927807
N      0.8592598654   1.5720774964  -0.5815601363
H      2.5032691119   0.4064839410   0.0414053737
H      1.3975716416  -1.8781546094  -0.0745576536
H     -1.1858976365  -1.9634601825  -0.4421976901
H     -2.2027004262   0.3118354343   0.2489810237
H     -1.0440981360   2.4661581684  -0.4473817604
C     -0.0201722962  -0.1956416073   0.9332199799
H     -0.3077741876  -0.9065329647   1.7234526932
13
Frame written by nebterpolator, Thu Mar  3 01:40:28 2022
C      1.4090010798   0.3930689200  -0.1364625916
C      0.7956881110  -0.9862643448  -0.3069394030
C     -0.6166411236  -1.0274219811  -0.4999582679
C     -1.1487989871   0.2630389534  -0.0779846654
C     -0.4673477743   1.5318400895  -0.4035829378
N      0.8537076694   1.5703318067  -0.5795385286
H      2.4789167017   0.3972839740   0.1018396358
H      1.3932417685  -1.8865477318  -0.0993051979
H     -1.1932966645  -1.9611807265  -0.4338930421
H     -2.1956467353   0.3088072012   0.2672094227
H     -1.0479574815   2.4645843714  -0.4701900911
C      0.0040806210  -0.1825003733   0.9172110744
H     -0.2649471851  -0.8850401588   1.7215945926
13
Frame written by nebterpolator, Thu Mar  3 01:40:28 2022
C      1.3871829793   0.3824650151  -0.1052752355
C      0.7921267653  -0.9893967534  -0.3266005139
C     -0.6224174125  -1.0237891834  -0.5261734729
C     -1.1442939880   0.2636627626  -0.0706593409
C     -0.4692168343   1.5328261049  -0.4137705767
N      0.8471578879   1.5682520538  -0.5767814153
H      2.4528136212   0.3856399332   0.1611267929
H      1.3887910762  -1.8924919446  -0.1230485940
H     -1.2003637198  -1.9564652524  -0.4375248043
H     -2.1865009562   0.3059899130   0.2899582080
H     -1.0526097272   2.4614496084  -0.5005009643
C      0.0269456434  -0.1755310684   0.9022329030
H     -0.2196153354  -0.8626111888   1.7270170139
13
Frame written by nebterpolator, Thu Mar  3 01:40:28 2022
C      1.3633258868   0.3696886162  -0.0727035019
C      0.7871927683  -0.9888943294  -0.3411078874
C     -0.6275999996  -1.0166821254  -0.5562506879
C     -1.1366410784   0.2650640316  -0.0569639621
C     -0.4714223832   1.5332211689  -0.4248781202
N      0.8398101068   1.5656467353  -0.5729908483
H      2.4250293267   0.3716040718   0.2191223977
H      1.3839973049  -1.8958663943  -0.1461334587
H     -1.2078905506  -1.9484443327  -0.4569765808
H     -2.1746411457   0.3033413891   0.3180996695
H     -1.0585940730   2.4552991986  -0.5405056905
C      0.0485165720  -0.1754154750   0.8899180060
H     -0.1710827350  -0.8385625545   1.7413706646
13
Frame written by nebterpolator, Thu Mar  3 01:40:28 2022
C      1.3416007875   0.3608310889  -0.0380536172
C      0.7857968742  -0.9900262537  -0.3520229615
C     -0.6403368600  -1.0076306490  -0.5919551034
C     -1.1274720611   0.2660772137  -0.0372434433
C     -0.4741156254   1.5310429333  -0.4377149676
N      0.8345074474   1.5612768658  -0.5686435312
H      2.3975435214   0.3626333711   0.2780311536
H      1.3819352669  -1.8991759425  -0.1673176933
H     -1.2238012042  -1.9361394112  -0.4921478145
H     -2.1600802843   0.3024320170   0.3528826189
H     -1.0656131232   2.4435897362  -0.5919697146
C      0.0690492044  -0.1820299512   0.8819705864
H     -0.1190139435  -0.8128810185   1.7641844877
13
Frame written by nebterpolator, Thu Mar  3 01:40:28 2022
C      1.3242177360   0.3570887739  -0.0038677017
C      0.7873903931  -0.9934116398  -0.3568746864
C     -0.6597601828  -0.9964259096  -0.6301371880
C     -1.1171190715   0.2662092240  -0.0123862506
C     -0.4773794925   1.5258128278  -0.4508826591
N      0.8315820022   1.5551578351  -0.5641612660
H      2.3732754801   0.3600404092   0.3320622486
H      1.3827090949  -1.9024306710  -0.1846158496
H     -1.2479871072  -1.9187569925  -0.5447882940
H     -2.1436437646   0.3032214813   0.3918596665
H     -1.0735375013   2.4249507344  -0.6521770951
C      0.0873992476  -0.1946944842   0.8812452344
H     -0.0671468339  -0.7867615884   1.7947238410
13
Frame written by nebterpolator, Thu Mar  3 01:40:28 2022
C      1.3096675316   0.3542328266   0.0254434798
C      0.7843656378  -0.9958743039  -0.3556881221
C     -0.6736743890  -0.9843331932  -0.6620358756
C     -1.1060583685   0.2656903756   0.0127153092
C     -0.4805694871   1.5201992686  -0.4614135580
N      0.8285970974   1.5497256052  -0.5597083693
H      2.3539683022   0.3573547022   0.3739818522
H      1.3812764292  -1.9046637498  -0.1992133223
H     -1.2688597983  -1.8997439012  -0.6041813568
H     -2.1282958740   0.3031213300   0.4271411594
H     -1.0813887121   2.4040575295  -0.7091733738
C      0.1026287587  -0.2076069010   0.8857082419
H     -0.0216571280  -0.7621595883   1.8264239353
13
Frame written by nebterpolator, Thu Mar  3 01:40:28 2022
C      1.2974576402   0.3527178614   0.0486271997
C      0.7712758161  -0.9984578914  -0.3498717716
C     -0.6756862477  -0.9726906407  -0.6837761321
C     -1.0941274116   0.2645034533   0.0364901962
C     -0.4836035030   1.5150143860  -0.4684007454
N      0.8256082526   1.5461303596  -0.5547222503
H      2.3401063705   0.3531118101   0.4018255575
H      1.3731194850  -1.9075526934  -0.2125434012
H     -1.2807129766  -1.8802274133  -0.6658966301
H     -2.1149968977   0.3006089818   0.4560614472
H     -1.0891304812   2.3825772815  -0.7587463178
C      0.1145880529  -0.2175368552   0.8938646591
H      0.0161019005  -0.7381986397   1.8570881886
13
Frame written by nebterpolator, Thu Mar  3 01:40:28 2022
C      1.2872867934   0.3516804779   0.0677232473
C      0.7549433939  -1.0014183996  -0.3411837169
C     -0.6730023427  -0.9618878389  -0.6993937452
C     -1.0829626429   0.2625547483   0.0582510675
C     -0.4866626177   1.5098854558  -0.4732624512
N      0.8225233953   1.5428923327  -0.5506113077
H      2.3298573925   0.3485746424   0.4213089388
H      1.3630195860  -1.9106375745  -0.2235883177
H     -1.2883426126  -1.8598077240  -0.7279844329
H     -2.1036326421   0.2968360217   0.4806919222
H     -1.0964667971   2.3612639196  -0.8016920575
C      0.1248450230  -0.2249665032   0.9038484128
H      0.0485940712  -0.7149695581   1.8858924407
13
Frame written by nebterpolator, Thu Mar  3 01:40:28 2022
C      1.2788872208   0.3508662681   0.0834897517
C      0.7374120719  -1.0049853456  -0.3304142452
C     -0.6677689333  -0.9521611386  -0.7100925429
C     -1.0730041272   0.2598481298   0.0779700068
C     -0.4898050755   1.5046642604  -0.4765944329
N      0.8193109149   1.5395348166  -0.5477835325
H      2.3224463848   0.3441011962   0.4345335452
H      1.3522798143  -1.9139575739  -0.2321086922
H     -1.2929680624  -1.8381665250  -0.7899674862
H     -2.0941033488   0.2921436170   0.5019414984
H     -1.1033941039   2.3404526116  -0.8384723977
C      0.1339006431  -0.2300502241   0.9148536229
H      0.0768066012  -0.6922900923   1.9126449045
13
Frame written by nebterpolator, Thu Mar  3 01:40:28 2022
C      1.2721912851   0.3499867461   0.0966038979
C      0.7216714615  -1.0092142404  -0.3181490610
C     -0.6630883611  -0.9436341333  -0.7173968928
C     -1.0648043472   0.2564292994   0.0956028639
C     -0.4930559905   1.4991292201  -0.4790222056
N      0.8159342075   1.5354447244  -0.5467871587
H      2.3171719174   0.3403651039   0.4435305768
H      1.3429903942  -1.9172773480  -0.2374891851
H     -1.2965552779  -1.8149517860  -0.8514530577
H     -2.0862655908   0.2871807114   0.5207889595
H     -1.1098319127   2.3203555779  -0.8697291530
C      0.1421516919  -0.2333735452   0.9263268516
H      0.1014905226  -0.6704403303   1.9371735642
13
Frame written by nebterpolator, Thu Mar  3 01:40:28 2022
C      1.2671114037   0.3488486586   0.1076787298
C      0.7095711761  -1.0139636014  -0.3047915029
C     -0.6611505297  -0.9364310005  -0.7225551342
C     -1.0586200695   0.2523914099   0.1112428653
C     -0.4964120541   1.4931360266  -0.4810543136
N      0.8124080285   1.5303230088  -0.5477442239
H      2.3134803058   0.3377180737   0.4498586634
H      1.3365210084  -1.9203177347  -0.2395797288
H     -1.3005049440  -1.7899894097  -0.9122234431
H     -2.0798860082   0.2824863042   0.5380479992
H     -1.1157863357   2.3010092812  -0.8963627896
C      0.1499059998  -0.2355727099   0.9379325952
H      0.1233620191  -0.6496383067   1.9595502833
13
Frame written by nebterpolator, Thu Mar  3 01:40:28 2022
C      1.2632744470   0.3475512171   0.1170893910
C      0.7001996562  -1.0191732735  -0.2907614960
C     -0.6613039507  -0.9307699282  -0.7257044086
C     -1.0540315812   0.2479013503   0.1252870913
C     -0.4998349156   1.4867318791  -0.4828875474
N      0.8088035071   1.5244367214  -0.5501162579
H      2.3109878932   0.3358664908   0.4541070062
H      1.3321909614  -1.9231962754  -0.2391652036
H     -1.3043570068  -1.7632846876  -0.9722507386
H     -2.0746564812   0.2780795726   0.5540806910
H     -1.1214353733   2.2823393076  -0.9193107797
C      0.1571819606  -0.2368509227   0.9494941299
H      0.1429808834  -0.6296314517   1.9801381222
13
Frame written by nebterpolator, Thu Mar  3 01:40:28 2022
C      1.2602750148   0.3464293443   0.1249551509
C      0.6916417235  -1.0248788480  -0.2768033672
C     -0.6613105406  -0.9276292242  -0.7260149787
C     -1.0502791678   0.2429990398   0.1382217100
C     -0.5032295472   1.4799959232  -0.4845836769
N      0.8052677754   1.5183334153  -0.5530887455
H      2.3094435220   0.3344089631   0.4564010570
H      1.3286691577  -1.9261441337  -0.2374528772
H     -1.3073395887  -1.7344543425  -1.0312813899
H     -2.0702869300   0.2735995906   0.5687794321
H     -1.1269391370   2.2643064068  -0.9392637552
C      0.1635854625  -0.2369810267   0.9608877320
H      0.1605022554  -0.6099851080   1.9992437086
13
Frame written by nebterpolator, Thu Mar  3 01:40:28 2022
C      1.2589318456   0.3463593002   0.1306820095
C      0.6865700544  -1.0309205653  -0.2663505916
C     -0.6599523471  -0.9348266290  -0.7200649977
C     -1.0469265095   0.2363428400   0.1498416066
C     -0.5061315119   1.4722870163  -0.4869472008
N      0.8024908884   1.5126112086  -0.5558942386
H      2.3088742198   0.3347503155   0.4580240476
H      1.3292464171  -1.9279044006  -0.2353874426
H     -1.3152235085  -1.6986804477  -1.0859734107
H     -2.0667765459   0.2683338274   0.5804920898
H     -1.1316855456   2.2475570106  -0.9555399259
C      0.1667517744  -0.2347627373   0.9716026829
H      0.1738307689  -0.5911467386   2.0155153714
13
Frame written by nebterpolator, Thu Mar  3 01:40:28 2022
C      1.2573826459   0.3461612524   0.1345771901
C      0.6812162068  -1.0371176443  -0.2575736795
C     -0.6606322279  -0.9495829651  -0.7056932399
C     -1.0446021698   0.2298345960   0.1603542199
C     -0.5086841002   1.4647451906  -0.4902305781
N      0.7999239518   1.5073987160  -0.5587627327
H      2.3081470079   0.3348405004   0.4584700605
H      1.3297382439  -1.9294124895  -0.2335972065
H     -1.3168486404  -1.6602546010  -1.1391849643
H     -2.0643472747   0.2647828023   0.5906699093
H     -1.1357869483   2.2335249989  -0.9686361592
C      0.1696437171  -0.2316012157   0.9804599490
H      0.1848495879  -0.5733191411   2.0291472313
13
Frame written by nebterpolator, Thu Mar  3 01:40:28 2022
C      1.2557209733   0.3458894701   0.1375936412
C      0.6756966098  -1.0434033983  -0.2495324867
C     -0.6623216080  -0.9678018678  -0.6874060665
C     -1.0427825237   0.2234061249   0.1703455090
C     -0.5110729427   1.4572805335  -0.4939535136
N      0.7974448941   1.5024139784  -0.5616691594
H      2.3073382778   0.3347985704   0.4583355699
H      1.3301575702  -1.9308166486  -0.2319249964
H     -1.3153833107  -1.6206184452  -1.1917008724
H     -2.0624331902   0.2620658837   0.6001433867
H     -1.1395795130   2.2207798463  -0.9802206719
C      0.1724217885  -0.2280280970   0.9884535915
H      0.1947929746  -0.5559659504   2.0415360686
13
Frame written by nebterpolator, Thu Mar  3 01:40:28 2022
C      1.2530411259   0.3447504901   0.1389308861
C      0.6680703426  -1.0506919049  -0.2388750665
C     -0.6678111205  -0.9829883372  -0.6689933876
C     -1.0425971488   0.2176481795   0.1799229866
C     -0.5133765673   1.4497873367  -0.4984143429
N      0.7943770186   1.4968759893  -0.5651022829
H      2.3060342176   0.3338194952   0.4561572272
H      1.3285813626  -1.9330268632  -0.2296535257
H     -1.3028346560  -1.5823191427  -1.2437473859
H     -2.0612993431   0.2616192069   0.6101553924
H     -1.1428170944   2.2095050885  -0.9897308831
C      0.1760284276  -0.2260789874   0.9964221811
H      0.2046034351  -0.5389005507   2.0529282011
13
Frame written by nebterpolator, Thu Mar  3 01:40:28 2022
C      1.2506250798   0.3434716417   0.1402233014
C      0.6607802095  -1.0581827012  -0.2276049521
C     -0.6737457703  -0.9969333854  -0.6527337202
C     -1.0426803727   0.2120968458   0.1893887137
C     -0.5158594797   1.4423671021  -0.5025221352
N      0.7910559932   1.4910417120  -0.5689562303
H      2.3049373534   0.3328329773   0.4533298792
H      1.3268118959  -1.9355966671  -0.2261481607
H     -1.2897095870  -1.5437526385  -1.2954368590
H     -2.0600120678   0.2610851167   0.6205629370
H     -1.1463081691   2.1978588264  -0.9990343739
C      0.1796548711  -0.2242371800   1.0046456595
H      0.2144500437  -0.5220516499   2.0642859405
13
Frame written by nebterpolator, Thu Mar  3 01:40:28 2022
C      1.2490536697   0.3417449641   0.1413721817
C      0.6545663065  -1.0663211865  -0.2143731203
C     -0.6811056559  -1.0069036655  -0.6433675408
C     -1.0436235932   0.2072070392   0.1984966393
C     -0.5189164336   1.4351804772  -0.5054995778
N      0.7869244355   1.4842587828  -0.5741575669
H      2.3045038868   0.3318226297   0.4484245534
H      1.3244236540  -1.9393178002  -0.2186921269
H     -1.2747389614  -1.5043306107  -1.3459831642
H     -2.0582335479   0.2602711475   0.6322369132
H     -1.1506108756   2.1850230862  -1.0076759896
C      0.1833447241  -0.2227389315   1.0136852382
H      0.2244123910  -0.5058959322   2.0755335606
13
Frame written by nebterpolator, Thu Mar  3 01:40:28 2022
C      1.2475247636   0.3399792415   0.1426736247
C      0.6483806796  -1.0746484929  -0.2008932466
C     -0.6886609685  -1.0166987728  -0.6344786579
C     -1.0446184360   0.2023093411   0.2075752711
C     -0.5218339621   1.4280427699  -0.5085396553
N      0.7823670389   1.4775140208  -0.5793549357
H      2.3038727671   0.3308278462   0.4433890812
H      1.3220047036  -1.9428925000  -0.2112807805
H     -1.2595662648  -1.4647272611  -1.3963235156
H     -2.0563507196   0.2595461098   0.6438613753
H     -1.1546624307   2.1719383773  -1.0163399666
C      0.1871658214  -0.2214409147   1.0229394921
H      0.2343770076  -0.4897497652   2.0867719138
13
Frame written by nebterpolator, Thu Mar  3 01:40:28 2022
C      1.2461268436   0.3380931928   0.1444452249
C      0.6422821918  -1.0835576957  -0.1866489741
C     -0.6968185349  -1.0259540445  -0.6270606748
C     -1.0457723652   0.1973873238   0.2165636273
C     -0.5243218189   1.4210558137  -0.5117727565
N      0.7764973211   1.4708868802  -0.5845400768
H      2.3026325336   0.3298810271   0.4379525327
H      1.3194911178  -1.9460159313  -0.2040071492
H     -1.2437708398  -1.4245651259  -1.4460291725
H     -2.0541464408   0.2590951350   0.6553332480
H     -1.1579400046   2.1580864136  -1.0250728555
C      0.1913913784  -0.2207599583   1.0328553177
H      0.2443486179  -0.4736330305   2.0979817089
13
Frame written by nebterpolator, Thu Mar  3 01:40:28 2022
C      1.2442771111   0.3354666978   0.1469841013
C      0.6344763129  -1.0931605589  -0.1695361258
C     -0.7066693878  -1.0294470229  -0.6236691560
C     -1.0475003441   0.1935522148   0.2253632408
C     -0.5265454617   1.4148567206  -0.5147199069
N      0.7686895170   1.4641457021  -0.5901188183
H      2.3005802756   0.3279830441   0.4311545357
H      1.3145079457  -1.9494739238  -0.1963319730
H     -1.2225696914  -1.3875664984  -1.4958608484
H     -2.0516186082   0.2596960013   0.6675553377
H     -1.1606312670   2.1433833098  -1.0340022051
C      0.1975699856  -0.2217197156   1.0435576975
H      0.2554336125  -0.4577159711   2.1096241204
13
Frame written by nebterpolator, Thu Mar  3 01:40:28 2022
C      1.2425870479   0.3319885989   0.1506066078
C      0.6257772458  -1.1038030677  -0.1480380642
C     -0.7180868962  -1.0231180828  -0.6302418560
C     -1.0499216902   0.1908642128   0.2342202038
C     -0.5290101739   1.4092742354  -0.5165162485
N      0.7586769155   1.4565003444  -0.5968403096
H      2.2983272646   0.3253336638   0.4222384811
H      1.3070719533  -1.9540125391  -0.1859244708
H     -1.1975422367  -1.3533601045  -1.5462106628
H     -2.0482420753   0.2604331384   0.6816980346
H     -1.1635216952   2.1262611395  -1.0437079965
C      0.2055481447  -0.2245683616   1.0561598637
H      0.2683361958  -0.4417931775   2.1225564175
13
Frame written by nebterpolator, Thu Mar  3 01:40:28 2022
C      1.2425381889   0.3277067981   0.1556931888
C      0.6185841314  -1.1159574044  -0.1200185899
C     -0.7301473301  -1.0005102675  -0.6579204265
C     -1.0530701161   0.1890328593   0.2437334282
C     -0.5328981012   1.4036383952  -0.5154230618
N      0.7466367192   1.4463055258  -0.6061543810
H      2.2974935004   0.3227267799   0.4101118343
H      1.2981713623  -1.9610977736  -0.1679564784
H     -1.1741498152  -1.3199322085  -1.5978683366
H     -2.0430188986   0.2589434978   0.6999742199
H     -1.1685166811   2.1036960416  -1.0553544173
C      0.2142445099  -0.2292037454   1.0727384849
H      0.2841325299  -0.4253484982   2.1384445353
