13   
Frame written by nebterpolator, Thu Mar  3 01:40:28 2022
C        1.5360581838    0.4300917552   -0.3803367058
C        0.8437398609   -0.7972775747    0.0801986016
C       -0.5859840657   -1.0274911740   -0.3819403129
C       -1.1171137319    0.3117013152    0.1012930658
C       -0.4277233869    1.5419629907   -0.3563521428
N        0.8835531480    1.5723176511   -0.5867061993
H        2.6089057712    0.4191080093   -0.5624229367
H        1.4551752420   -1.6865592210    0.2246630577
H       -1.0692904091   -1.8717942217   -0.8535197564
H       -2.1914735373    0.3770133129    0.2647657020
H       -0.9907430647    2.4598855674   -0.5142812157
C       -0.3510370587   -0.6403404668    1.0056614644
H       -0.5940669521   -1.0886179431    1.9589773776
13   
Frame written by nebterpolator, Thu Mar  3 01:40:28 2022
C        1.5235520890    0.4199298590   -0.3597212654
C        0.8383342485   -0.8206124698    0.0263189917
C       -0.5826781484   -1.0198766607   -0.3901453215
C       -1.1228198264    0.3021069528    0.0632971511
C       -0.4342653678    1.5377919348   -0.3562862430
N        0.8771663428    1.5727231035   -0.5856980141
H        2.6086132741    0.4147779270   -0.4836911570
H        1.4497557369   -1.7176968324    0.1840263144
H       -1.0889312646   -1.8952745965   -0.7910937176
H       -2.2015325348    0.3629222960    0.2505435456
H       -1.0019766547    2.4646802438   -0.4840575615
C       -0.3010453784   -0.5598956927    0.9995112136
H       -0.5641725162   -1.0615760647    1.9269960637
13   
Frame written by nebterpolator, Thu Mar  3 01:40:28 2022
C        1.5118044232    0.4114227103   -0.3379510934
C        0.8324977357   -0.8455393134   -0.0274120767
C       -0.5805470200   -1.0143501118   -0.3981312432
C       -1.1288379143    0.2930012623    0.0267770835
C       -0.4412425896    1.5342357979   -0.3570836568
N        0.8719886137    1.5733661370   -0.5855614094
H        2.6056431509    0.4115821419   -0.4039772566
H        1.4432095643   -1.7481401671    0.1426115192
H       -1.1075695316   -1.9163708623   -0.7264633753
H       -2.2095502488    0.3499148995    0.2374026607
H       -1.0125656635    2.4681179423   -0.4564185273
C       -0.2506008270   -0.4803709190    0.9951001185
H       -0.5342296931   -1.0368695176    1.8911072568
13   
Frame written by nebterpolator, Thu Mar  3 01:40:28 2022
C        1.5006248823    0.4057189849   -0.3132840383
C        0.8261296292   -0.8730013283   -0.0810042086
C       -0.5809325650   -1.0129818684   -0.4064082078
C       -1.1354549506    0.2848294237   -0.0064345762
C       -0.4485535325    1.5320327516   -0.3597177562
N        0.8685828707    1.5742740592   -0.5866903885
H        2.5970427577    0.4101717475   -0.3216887526
H        1.4348822824   -1.7768242595    0.0996251473
H       -1.1243730596   -1.9329937104   -0.6587694290
H       -2.2136760040    0.3389832987    0.2270054713
H       -1.0214851603    2.4693085402   -0.4345095367
C       -0.2001307164   -0.4043952487    0.9922974738
H       -0.5026564339   -1.0151223907    1.8495788016
13   
Frame written by nebterpolator, Thu Mar  3 01:40:28 2022
C        1.4879047617    0.4038099430   -0.2841125235
C        0.8183515453   -0.9024676317   -0.1346122216
C       -0.5837387886   -1.0151658833   -0.4159859385
C       -1.1415943963    0.2774857311   -0.0353155579
C       -0.4547935378    1.5306929626   -0.3644922263
N        0.8666543310    1.5749024265   -0.5873335005
H        2.5823363370    0.4106519157   -0.2357457062
H        1.4251196472   -1.8053055528    0.0549303806
H       -1.1401451011   -1.9461286480   -0.5909497849
H       -2.2150159454    0.3299684075    0.2207850145
H       -1.0286765862    2.4692755268   -0.4206431499
C       -0.1505978848   -0.3347963680    0.9868388931
H       -0.4658043821   -0.9929228293    1.8066363211
13   
Frame written by nebterpolator, Thu Mar  3 01:40:28 2022
C        1.4718289321    0.4038602597   -0.2495875660
C        0.8096959440   -0.9321099870   -0.1882533622
C       -0.5888004960   -1.0196921456   -0.4289766015
C       -1.1467566059    0.2710025776   -0.0591708930
C       -0.4595079718    1.5301951001   -0.3715661152
N        0.8649565908    1.5749946115   -0.5866527523
H        2.5615060145    0.4112252328   -0.1450048150
H        1.4146274408   -1.8332096408    0.0090114842
H       -1.1552356621   -1.9564226884   -0.5267538623
H       -2.2140735415    0.3222740427    0.2203158833
H       -1.0344232141    2.4689291080   -0.4159294098
C       -0.1027876890   -0.2737165515    0.9753620114
H       -0.4210297417   -0.9673299192    1.7672059985
13   
Frame written by nebterpolator, Thu Mar  3 01:40:28 2022
C        1.4512562123    0.4041806659   -0.2080214834
C        0.8028677720   -0.9597455404   -0.2405691390
C       -0.5988523194   -1.0252916002   -0.4503038648
C       -1.1502603922    0.2659699923   -0.0746953073
C       -0.4628747596    1.5302779059   -0.3821806494
N        0.8627803167    1.5739268889   -0.5844537520
H        2.5334696722    0.4106186542   -0.0477567761
H        1.4050364906   -1.8589203380   -0.0362478471
H       -1.1714435898   -1.9623792051   -0.4739327683
H       -2.2097777575    0.3162108865    0.2304346400
H       -1.0393339182    2.4679767764   -0.4256844557
C       -0.0578026725   -0.2261613591    0.9553216030
H       -0.3650650546   -0.9366637273    1.7380898000
13   
Frame written by nebterpolator, Thu Mar  3 01:40:28 2022
C        1.4251207346    0.3998459228   -0.1609371440
C        0.7980153915   -0.9808662112   -0.2875941380
C       -0.6115477514   -1.0283613689   -0.4814558653
C       -1.1505344328    0.2632542326   -0.0797646859
C       -0.4658941712    1.5309238661   -0.3960386265
N        0.8582164731    1.5717494390   -0.5811802272
H        2.4986927035    0.4047550441    0.0527624371
H        1.3967579534   -1.8797318806   -0.0792083173
H       -1.1872880933   -1.9630318174   -0.4406370454
H       -2.2013748666    0.3112663559    0.2524065819
H       -1.0448234006    2.4658624138   -0.4516679988
C       -0.0156145849   -0.1931720508    0.9302115183
H       -0.2997259553   -0.9024939453    1.7231035110
13   
Frame written by nebterpolator, Thu Mar  3 01:40:28 2022
C        1.3912959390    0.3844639716   -0.1111544064
C        0.7927981194   -0.9888062588   -0.3228941712
C       -0.6213285164   -1.0244740070   -0.5212316090
C       -1.1451432315    0.2635451675   -0.0720402478
C       -0.4688644953    1.5326402298   -0.4118500911
N        0.8483925961    1.5686441108   -0.5773011625
H        2.4577343483    0.3878349671    0.1499504904
H        1.3896300823   -1.8913713930   -0.1185726942
H       -1.1990314996   -1.9573541728   -0.4368401759
H       -2.1882250394    0.3065210038    0.2856698036
H       -1.0517327260    2.4620405468   -0.4947870204
C        0.0226353270   -0.1768448615    0.9050564584
H       -0.2281609039   -0.8668393044    1.7259948259
13   
Frame written by nebterpolator, Thu Mar  3 01:40:28 2022
C        1.3575387781    0.3673291576   -0.0634735027
C        0.7868209315   -0.9891958502   -0.3440154332
C       -0.6309928308   -1.0142710028   -0.5657615919
C       -1.1341986454    0.2653339219   -0.0517108314
C       -0.4721398062    1.5326409328   -0.4282975859
N        0.8383975900    1.5644826941   -0.5718328146
H        2.4177076873    0.3692144662    0.2348144491
H        1.3834480214   -1.8967479882   -0.1517764925
H       -1.2121288135   -1.9451665609   -0.4663454564
H       -2.1707624390    0.3030991515    0.3273651144
H       -1.0604638001    2.4521800445   -0.5542146222
C        0.0539860327   -0.1771774321    0.8878009809
H       -0.1572127060   -0.8317215344    1.7474477864
13   
Frame written by nebterpolator, Thu Mar  3 01:40:28 2022
C        1.3323241714    0.3588339701   -0.0198100070
C        0.7866472694   -0.9918328943   -0.3546121265
C       -0.6507022846   -1.0016511427   -0.6123313038
C       -1.1219470985    0.2661476621   -0.0239781869
C       -0.4758574164    1.5282518422   -0.4447420203
N        0.8329462582    1.5580113920   -0.5662515315
H        2.3845926708    0.3612496145    0.3068653159
H        1.3823482269   -1.9009128566   -0.1765490043
H       -1.2367082210   -1.9268631328   -0.5202398627
H       -2.1513087931    0.3028533215    0.3736830582
H       -1.0698420363    2.4336428713   -0.6240999052
C        0.0788418640   -0.1887884890    0.8815834960
H       -0.0913346109   -0.7989421582    1.7804820783
13   
Frame written by nebterpolator, Thu Mar  3 01:40:28 2022
C        1.3125426804    0.3547971673    0.0196515332
C        0.7849633353   -0.9953876767   -0.3559225895
C       -0.6709249147   -0.9867227376   -0.6557326327
C       -1.1082439850    0.2657929010    0.0077551921
C       -0.4799391379    1.5213085188   -0.4593326319
N        0.8291869204    1.5507990244   -0.5605882704
H        2.3577834382    0.3578854031    0.3656984568
H        1.3815595267   -1.9042224891   -0.1963288332
H       -1.2647353138   -1.9035009251   -0.5924451718
H       -2.1313286471    0.3031411201    0.4201694676
H       -1.0798372975    2.4081860675   -0.6979107980
C        0.0996193776   -0.2050553823    0.8848263429
H       -0.0306459826   -0.7670209915    1.8201599349
13   
Frame written by nebterpolator, Thu Mar  3 01:40:28 2022
C        1.2946465760    0.3524311447    0.0539050509
C        0.7667617881   -0.9992761299   -0.3474705281
C       -0.6749444580   -0.9697049140   -0.6880925979
C       -1.0910416428    0.2639648615    0.0425045632
C       -0.4844489948    1.5135968293   -0.4697444454
N        0.8247556459    1.5452354192   -0.5535860496
H        2.3372737121    0.3518578074    0.4072104617
H        1.3703280297   -1.9084053067   -0.2155960447
H       -1.2828216896   -1.8745837281   -0.6830567350
H       -2.1118559939    0.2995661942    0.4628689282
H       -1.0911581250    2.3766865991   -0.7706158536
C        0.1174229202   -0.2195902946    0.8966240137
H        0.0250822321   -0.7317784821    1.8650492368
13   
Frame written by nebterpolator, Thu Mar  3 01:40:28 2022
C        1.2792650725    0.3509028950    0.0827805013
C        0.7382007121   -1.0048248878   -0.3308987060
C       -0.6680043563   -0.9525986907   -0.7096112614
C       -1.0734521074    0.2599698860    0.0770829575
C       -0.4896637132    1.5048991340   -0.4764445449
N        0.8194554272    1.5396858532   -0.5479107389
H        2.3227797663    0.3443024326    0.4339386411
H        1.3527629390   -1.9138082249   -0.2317254062
H       -1.2927599882   -1.8391400465   -0.7871792011
H       -2.0945320206    0.2923547031    0.5009855940
H       -1.1030824815    2.3413888007   -0.8368178475
C        0.1334932793   -0.2298215348    0.9143585575
H        0.0755374708   -0.6933103198    1.9114414547
13   
Frame written by nebterpolator, Thu Mar  3 01:40:28 2022
C        1.2678330476    0.3490103344    0.1061054479
C        0.7112901331   -1.0132889109   -0.3066890671
C       -0.6614258165   -0.9374542719   -0.7218223585
C       -1.0594986031    0.2529650293    0.1090210590
C       -0.4959352944    1.4939874149   -0.4807656339
N        0.8129089547    1.5310505957   -0.5476082640
H        2.3140047332    0.3380941087    0.4489597004
H        1.3374400443   -1.9198858198   -0.2392827478
H       -1.2999438575   -1.7935355452   -0.9035904500
H       -2.0807922867    0.2831531880    0.5355961936
H       -1.1149404551    2.3037576009   -0.8925792362
C        0.1488044289   -0.2352602983    0.9362838924
H        0.1202549715   -0.6525934258    1.9563714642
13   
Frame written by nebterpolator, Thu Mar  3 01:40:28 2022
C        1.2604551378    0.3464967154    0.1244827935
C        0.6921556475   -1.0245362149   -0.2776415856
C       -0.6613101449   -0.9278178309   -0.7259963282
C       -1.0505045090    0.2432934351    0.1374449558
C       -0.5030256916    1.4804004332   -0.4844818203
N        0.8054801044    1.5186999332   -0.5529102406
H        2.3095362651    0.3344964911    0.4562632939
H        1.3288806503   -1.9259671079   -0.2375557064
H       -1.3071604777   -1.7361856725   -1.0277364606
H       -2.0705493318    0.2738686241    0.5678967382
H       -1.1266086230    2.2653893249   -0.9380655322
C        0.1632009172   -0.2369732136    0.9602035194
H        0.1594500558   -0.6111649171    1.9980963733
13   
Frame written by nebterpolator, Thu Mar  3 01:40:28 2022
C        1.2570698191    0.3461100866    0.1351450677
C        0.6801770865   -1.0383010014   -0.2560598431
C       -0.6609502709   -0.9530128589   -0.7022504935
C       -1.0442596029    0.2286243709    0.1622351817
C       -0.5091338241    1.4633398930   -0.4909314586
N        0.7994572440    1.5064602884   -0.5593098971
H        2.3079947562    0.3348326067    0.4584447413
H        1.3298171863   -1.9296768367   -0.2332823959
H       -1.3165727772   -1.6527926914   -1.1490716183
H       -2.0639869288    0.2642713147    0.5924533878
H       -1.1365009372    2.2311255943   -0.9708170616
C        0.1701667173   -0.2309285397    0.9819648335
H        0.1867215316   -0.5700522264    2.0314795560
13   
Frame written by nebterpolator, Thu Mar  3 01:40:28 2022
C        1.2519266427    0.3441605779    0.1395270565
C        0.6647075214   -1.0541472888   -0.2336763439
C       -0.6705486790   -0.9894209638   -0.6614930644
C       -1.0426355386    0.2150874385    0.1842893744
C       -0.5145218949    1.4463645018   -0.5003092014
N        0.7928450830    1.4941847310   -0.5668800469
H        2.3055282518    0.3333644304    0.4548530170
H        1.3277651361   -1.9342122724   -0.2280365572
H       -1.2967802727   -1.5645290343   -1.2675909089
H       -2.0607055437    0.2613728397    0.6149562254
H       -1.1444274710    2.2041328550   -0.9940224338
C        0.1777012477   -0.2252293913    1.0002155395
H        0.2091455174   -0.5311284236    2.0581673437
13   
Frame written by nebterpolator, Thu Mar  3 01:40:28 2022
C        1.2478879502    0.3403986830    0.1423644712
C        0.6498500547   -1.0726703689   -0.2040953458
C       -0.6868662291   -1.0143719776   -0.6365901825
C       -1.0443821144    0.2034727730    0.2054186723
C       -0.5211409129    1.4297383086   -0.5078174950
N        0.7834496333    1.4791162166   -0.5781203180
H        2.3040226875    0.3310641537    0.4445852409
H        1.3225793172   -1.9420433419   -0.2130413212
H       -1.2631704884   -1.4741349051   -1.3843653325
H       -2.0567979792    0.2597183401    0.6411000230
H       -1.1536999973    2.1750466064   -1.0142818676
C        0.1862581324   -0.2217492543    1.0207411748
H        0.2320099460   -0.4935852335    2.0841022804
13   
Frame written by nebterpolator, Thu Mar  3 01:40:28 2022
C        1.2442049522    0.3353181970    0.1471387677
C        0.6341048978   -1.0936149511   -0.1686182453
C       -0.7071568694   -1.0291768027   -0.6239497838
C       -1.0476037258    0.1934374480    0.2257413974
C       -0.5266506950    1.4146183710   -0.5147966034
N        0.7682620193    1.4638192762   -0.5904057989
H        2.3004840811    0.3278699263    0.4307738561
H        1.3141904588   -1.9496677044   -0.1958876146
H       -1.2215011201   -1.3861060233   -1.4980105824
H       -2.0514744439    0.2597274741    0.6681591738
H       -1.1607546766    2.1426522622   -1.0344166032
C        0.1979106208   -0.2218413413    1.0440957592
H        0.2559845008   -0.4570361320    2.1101762773
13   
Frame written by nebterpolator, Thu Mar  3 01:40:28 2022
C        1.2425381889    0.3277067981    0.1556931888
C        0.6185841314   -1.1159574044   -0.1200185899
C       -0.7301473301   -1.0005102675   -0.6579204265
C       -1.0530701161    0.1890328593    0.2437334282
C       -0.5328981012    1.4036383952   -0.5154230618
N        0.7466367192    1.4463055258   -0.6061543810
H        2.2974935004    0.3227267799    0.4101118343
H        1.2981713623   -1.9610977736   -0.1679564784
H       -1.1741498152   -1.3199322085   -1.5978683366
H       -2.0430188986    0.2589434978    0.6999742199
H       -1.1685166811    2.1036960416   -1.0553544173
C        0.2142445099   -0.2292037454    1.0727384849
H        0.2841325299   -0.4253484982    2.1384445353
