13   
Frame written by nebterpolator, Thu Mar  3 07:27:43 2022
C        1.5360581838    0.4300917552   -0.3803367058
C        0.8437398609   -0.7972775747    0.0801986016
C       -0.5859840657   -1.0274911740   -0.3819403129
C       -1.1171137319    0.3117013152    0.1012930658
C       -0.4277233869    1.5419629907   -0.3563521428
N        0.8835531480    1.5723176511   -0.5867061993
H        2.6089057712    0.4191080093   -0.5624229367
H        1.4551752420   -1.6865592210    0.2246630577
H       -1.0692904091   -1.8717942217   -0.8535197564
H       -2.1914735373    0.3770133129    0.2647657020
H       -0.9907430647    2.4598855674   -0.5142812157
C       -0.3510370587   -0.6403404668    1.0056614644
H       -0.5940669521   -1.0886179431    1.9589773776
13   
Frame written by nebterpolator, Thu Mar  3 07:27:43 2022
C        1.5170880022    0.4196834945   -0.3497879521
C        0.8307257316   -0.8319465097    0.0188972047
C       -0.5857232452   -1.0304382657   -0.4200925049
C       -1.1146941374    0.2987502560    0.0681816277
C       -0.4300528035    1.5477782674   -0.3702522132
N        0.8717798376    1.5875082417   -0.6044831931
H        2.6025620838    0.4228595266   -0.4345363071
H        1.4441710356   -1.7299877391    0.1805874584
H       -1.1084855927   -1.9003992926   -0.8112997676
H       -2.1919127785    0.3625999633    0.2715826325
H       -1.0069860771    2.4715870341   -0.4908298328
C       -0.3024041120   -0.5932854510    0.9832536380
H       -0.5260679444   -1.0247095253    1.9587792095
13   
Frame written by nebterpolator, Thu Mar  3 07:27:43 2022
C        1.4989674369    0.4093466287   -0.3186952495
C        0.8199489299   -0.8672849528   -0.0409272227
C       -0.5882051746   -1.0377601843   -0.4635596079
C       -1.1138991651    0.2869880146    0.0371887063
C       -0.4331459500    1.5556277491   -0.3837539697
N        0.8623576335    1.6014885971   -0.6260891510
H        2.5892862493    0.4284206342   -0.3043680014
H        1.4328584879   -1.7680949935    0.1361336556
H       -1.1460360369   -1.9269451837   -0.7611761275
H       -2.1878549369    0.3500776559    0.2789556480
H       -1.0200224212    2.4818640604   -0.4676596876
C       -0.2554844290   -0.5501630802    0.9606879054
H       -0.4587706239   -0.9635649457    1.9532631019
13   
Frame written by nebterpolator, Thu Mar  3 07:27:43 2022
C        1.4813913762    0.4036034671   -0.2868947190
C        0.8088147614   -0.9049782809   -0.0975753265
C       -0.5939400244   -1.0499449183   -0.5128978836
C       -1.1132665027    0.2763278201    0.0097233879
C       -0.4357324038    1.5652468662   -0.3967515795
N        0.8582131319    1.6139797235   -0.6488159378
H        2.5660041079    0.4381547471   -0.1741391328
H        1.4206672044   -1.8048432893    0.0903687039
H       -1.1802131405   -1.9514435172   -0.7036719340
H       -2.1804381182    0.3397304394    0.2864731550
H       -1.0296394776    2.4914064227   -0.4481458919
C       -0.2106069468   -0.5122305094    0.9378835012
H       -0.3912539679   -0.9050089708    1.9444436571
13   
Frame written by nebterpolator, Thu Mar  3 07:27:43 2022
C        1.4618766046    0.4019144037   -0.2529688158
C        0.7967952445   -0.9443170883   -0.1497971203
C       -0.6037896674   -1.0659433556   -0.5669256653
C       -1.1116675367    0.2669365006   -0.0114694362
C       -0.4368657836    1.5768837368   -0.4105165982
N        0.8590542290    1.6245184821   -0.6695812205
H        2.5303769265    0.4506425307   -0.0439512549
H        1.4087103392   -1.8415278274    0.0404288628
H       -1.2085441056   -1.9724489085   -0.6448850612
H       -2.1706277193    0.3318118096    0.2953996975
H       -1.0362644867    2.5009705124   -0.4383144192
C       -0.1680196269   -0.4811839500    0.9165131326
H       -0.3210344176   -0.8482568461    1.9360678988
13   
Frame written by nebterpolator, Thu Mar  3 07:27:43 2022
C        1.4378349759    0.4031985692   -0.2152817664
C        0.7832620328   -0.9841625872   -0.1958021536
C       -0.6175614522   -1.0828000705   -0.6228880309
C       -1.1070119835    0.2593917424   -0.0215502398
C       -0.4358949238    1.5903439395   -0.4276395846
N        0.8635683302    1.6318552263   -0.6857816308
H        2.4820241820    0.4644827976    0.0870042318
H        1.3979822415   -1.8778891650   -0.0164806580
H       -1.2310087561   -1.9876142474   -0.5963521975
H       -2.1581522903    0.3268340142    0.3094327174
H       -1.0414067557    2.5103420513   -0.4475968756
C       -0.1284474831   -0.4602928233    0.8995860641
H       -0.2451881177   -0.7936894472    1.9333501238
13   
Frame written by nebterpolator, Thu Mar  3 07:27:43 2022
C        1.4099285253    0.4084287476   -0.1738548906
C        0.7674823880   -1.0240595208   -0.2319379764
C       -0.6332626885   -1.0965256279   -0.6784429990
C       -1.0971408430    0.2548064467   -0.0161501664
C       -0.4328083047    1.6044658111   -0.4493433506
N        0.8709635511    1.6346272046   -0.6956000368
H        2.4234658327    0.4799617150    0.2152942924
H        1.3889307814   -1.9125599608   -0.0788334802
H       -1.2513300831   -1.9935490194   -0.5701898081
H       -2.1421040344    0.3254861218    0.3321250640
H       -1.0472451696    2.5166990965   -0.4846247332
C       -0.0937427772   -0.4537544059    0.8913760063
H       -0.1631371781   -0.7440266085    1.9401820786
13   
Frame written by nebterpolator, Thu Mar  3 07:27:43 2022
C        1.3762909459    0.4031482402   -0.1277832030
C        0.7603367154   -1.0522485622   -0.2523422975
C       -0.6505932710   -1.0984269949   -0.7348386695
C       -1.0826836705    0.2556887842    0.0056566955
C       -0.4292053648    1.6182566821   -0.4727470975
N        0.8731835730    1.6296961923   -0.7021925658
H        2.3582110052    0.4866904635    0.3355241401
H        1.3918012036   -1.9339997311   -0.1401328029
H       -1.2748241143   -1.9843060673   -0.5778113675
H       -2.1234241605    0.3286480243    0.3658607803
H       -1.0559825451    2.5160891834   -0.5519833735
C       -0.0652137793   -0.4632410790    0.8954821050
H       -0.0778965377   -0.7059951356    1.9573076561
13   
Frame written by nebterpolator, Thu Mar  3 07:27:43 2022
C        1.3355962095    0.3722868911   -0.0803261643
C        0.7592325852   -1.0547204987   -0.2563526336
C       -0.6558886808   -1.0798868523   -0.7842447814
C       -1.0662865737    0.2634413493    0.0407637527
C       -0.4287655877    1.6322640734   -0.4879310453
N        0.8681264295    1.6182648728   -0.7071095557
H        2.2954019922    0.4680994308    0.4360486020
H        1.4047015237   -1.9318213851   -0.1961463202
H       -1.2927835541   -1.9579773077   -0.6191661675
H       -2.1063929041    0.3327229487    0.4072287063
H       -1.0716576138    2.5034438319   -0.6428272736
C       -0.0437675836   -0.4810802070    0.9097503554
H        0.0024837575   -0.6850371473    1.9803125250
13   
Frame written by nebterpolator, Thu Mar  3 07:27:43 2022
C        1.3001561838    0.3442829875   -0.0355696215
C        0.7512601563   -1.0512572684   -0.2520223521
C       -0.6486523683   -1.0482015944   -0.8216266663
C       -1.0501903957    0.2746971886    0.0865694938
C       -0.4308727494    1.6436385601   -0.4929859609
N        0.8638067800    1.6024577833   -0.7058759310
H        2.2471455333    0.4461169990    0.5110384700
H        1.4115953861   -1.9226624758   -0.2445198457
H       -1.3071546820   -1.9171258848   -0.6827002372
H       -2.0913951544    0.3367427904    0.4560983571
H       -1.0897333091    2.4710344721   -0.7556262126
C       -0.0282537182   -0.5001889509    0.9317331823
H        0.0722883376   -0.6795346067    2.0054873241
13   
Frame written by nebterpolator, Thu Mar  3 07:27:43 2022
C        1.2773562746    0.3367362609    0.0062267818
C        0.7385998716   -1.0562707682   -0.2440326521
C       -0.6401524791   -1.0109624523   -0.8493663656
C       -1.0374032467    0.2857683522    0.1376971094
C       -0.4352744452    1.6486995597   -0.4948364879
N        0.8594751828    1.5826065682   -0.6975211213
H        2.2180648561    0.4391179180    0.5622799633
H        1.4096297106   -1.9188480161   -0.2812940709
H       -1.3258781898   -1.8630739704   -0.7589509921
H       -2.0780823395    0.3414155152    0.5120429408
H       -1.1016701736    2.4170901301   -0.8817958971
C       -0.0144113092   -0.5167464276    0.9588028493
H        0.1297462873   -0.6855326698    2.0307479425
13   
Frame written by nebterpolator, Thu Mar  3 07:27:43 2022
C        1.2608129630    0.3327437136    0.0464159042
C        0.7256797811   -1.0584400984   -0.2333161395
C       -0.6287432574   -0.9662721155   -0.8666626143
C       -1.0297658525    0.2955950330    0.1884796913
C       -0.4455959350    1.6456257443   -0.4994097095
N        0.8509862151    1.5603635564   -0.6844177278
H        2.2046748066    0.4330811009    0.5939775052
H        1.4026435997   -1.9143609476   -0.3075782857
H       -1.3425056149   -1.7961370343   -0.8444325680
H       -2.0684720981    0.3439009326    0.5703657594
H       -1.1076587835    2.3474235255   -1.0045232343
C        0.0016363111   -0.5255156729    0.9865338243
H        0.1763078648   -0.6980077378    2.0545675947
13   
Frame written by nebterpolator, Thu Mar  3 07:27:43 2022
C        1.2498772836    0.3298463049    0.0849819935
C        0.7129346778   -1.0569373575   -0.2206330270
C       -0.6157033925   -0.9153261492   -0.8735401863
C       -1.0270918248    0.3024703168    0.2363497139
C       -0.4612944538    1.6304812219   -0.5106664323
N        0.8389061634    1.5359662019   -0.6694441049
H        2.2051752155    0.4263004642    0.6085925227
H        1.3901707266   -1.9105820621   -0.3233204445
H       -1.3539648879   -1.7167753995   -0.9384828115
H       -2.0623995118    0.3431274547    0.6288557901
H       -1.1103945479    2.2671887770   -1.1137729713
C        0.0214581104   -0.5237226763    1.0137644390
H        0.2123264413   -0.7120370968    2.0773155186
13   
Frame written by nebterpolator, Thu Mar  3 07:27:43 2022
C        1.2455035093    0.3281618346    0.1209588174
C        0.7006359447   -1.0521352126   -0.2069804847
C       -0.6035700860   -0.8599140924   -0.8696708690
C       -1.0287924768    0.3048468433    0.2798242247
C       -0.4796446682    1.6020288977   -0.5273362102
N        0.8250242227    1.5097175821   -0.6561241251
H        2.2183041979    0.4189589665    0.6072880269
H        1.3713606143   -1.9094097006   -0.3289424884
H       -1.3569313427   -1.6269665768   -1.0389660414
H       -2.0594131419    0.3386496725    0.6857027839
H       -1.1136153217    2.1808232367   -1.2042001628
C        0.0453878541   -0.5099749883    1.0396668502
H        0.2357506943   -0.7247864627    2.0987796785
13   
Frame written by nebterpolator, Thu Mar  3 07:27:43 2022
C        1.2496590641    0.3336439599    0.1538628866
C        0.6865777015   -1.0483086158   -0.1947353753
C       -0.5954186185   -0.8044056235   -0.8559878870
C       -1.0339983316    0.3017196890    0.3183712200
C       -0.4971403415    1.5610424316   -0.5466569151
N        0.8126739723    1.4828450773   -0.6450931334
H        2.2426358667    0.4152996217    0.5916229830
H        1.3439509905   -1.9143160868   -0.3270511078
H       -1.3499145110   -1.5311922440   -1.1407247531
H       -2.0587411439    0.3312693659    0.7393554812
H       -1.1188049826    2.0911620115   -1.2756640795
C        0.0726373736   -0.4848925140    1.0642207731
H        0.2458829604   -0.7338670728    2.1184799071
13   
Frame written by nebterpolator, Thu Mar  3 07:27:43 2022
C        1.2615562683    0.3451824808    0.1834420543
C        0.6714033746   -1.0444729933   -0.1848846975
C       -0.5932578121   -0.7507236593   -0.8356160238
C       -1.0426207243    0.2936219019    0.3516928988
C       -0.5129821782    1.5089391781   -0.5660737195
N        0.8047793706    1.4558936231   -0.6360229075
H        2.2746473856    0.4136431712    0.5653885127
H        1.3095015280   -1.9236518317   -0.3197210330
H       -1.3328146894   -1.4324868219   -1.2395721196
H       -2.0603822940    0.3222888427    0.7885970170
H       -1.1276824198    2.0001914593   -1.3292130333
C        0.1019434083   -0.4504627699    1.0869428853
H        0.2459087824   -0.7379625809    2.1350401661
13   
Frame written by nebterpolator, Thu Mar  3 07:27:43 2022
C        1.2761706935    0.3501992794    0.2090652838
C        0.6603390349   -1.0322662050   -0.1755712076
C       -0.5979524193   -0.6955836429   -0.8123791065
C       -1.0546374287    0.2820913566    0.3793744831
C       -0.5273299513    1.4463734478   -0.5849572949
N        0.7986673683    1.4292604034   -0.6290040652
H        2.3083638678    0.4042403518    0.5349400489
H        1.2746364994   -1.9297113846   -0.3070398169
H       -1.3059522174   -1.3305201785   -1.3343635453
H       -2.0646097560    0.3132949415    0.8328671955
H       -1.1424341318    1.9101888852   -1.3652812769
C        0.1330309132   -0.4098986773    1.1058580361
H        0.2417075275   -0.7376685775    2.1464912660
13   
Frame written by nebterpolator, Thu Mar  3 07:27:43 2022
C        1.2896068494    0.3433943993    0.2291819828
C        0.6548591809   -1.0100778752   -0.1647966102
C       -0.6108916374   -0.6370396274   -0.7900453041
C       -1.0687450317    0.2675719578    0.4009842596
C       -0.5377127379    1.3701373413   -0.6065558858
N        0.7905930389    1.4048928307   -0.6226585057
H        2.3390236981    0.3840904778    0.5068056563
H        1.2430074939   -1.9293852774   -0.2891792713
H       -1.2711254624   -1.2268017552   -1.4242853278
H       -2.0704854648    0.3070288024    0.8711565641
H       -1.1636936502    1.8246752929   -1.3826569960
C        0.1654581495   -0.3676973051    1.1191201799
H        0.2401055737   -0.7307892620    2.1529292581
13   
Frame written by nebterpolator, Thu Mar  3 07:27:43 2022
C        1.3051826028    0.3331224719    0.2433443544
C        0.6640178773   -0.9884328535   -0.1511471409
C       -0.6442228836   -0.5825551635   -0.7864272548
C       -1.0850861094    0.2470058728    0.4133200440
C       -0.5440038450    1.2661850062   -0.6420371395
N        0.7865451447    1.3841299349   -0.6146623724
H        2.3638593243    0.3654936695    0.4949500730
H        1.2267445196   -1.9247776345   -0.2646019009
H       -1.2550020851   -1.1280907179   -1.5052169256
H       -2.0757637669    0.3095412552    0.8990016584
H       -1.1933498871    1.7533960470   -1.3720643315
C        0.1955506514   -0.3288217795    1.1273306616
H        0.2555284570   -0.7061961086    2.1582102741
13   
Frame written by nebterpolator, Thu Mar  3 07:27:43 2022
C        1.3080997493    0.3381956827    0.2413440300
C        0.6482049753   -0.9844236381   -0.1457317126
C       -0.6565438086   -0.5463631513   -0.7974468101
C       -1.0859289447    0.2190061143    0.4224462158
C       -0.5393061156    1.1377331771   -0.6905736614
N        0.7885695846    1.3891721479   -0.5799007197
H        2.3690240800    0.3606815592    0.5062443218
H        1.1973865360   -1.9297838581   -0.2595672397
H       -1.2500797147   -1.0670226342   -1.5547881869
H       -2.0758845786    0.3157324619    0.9030164211
H       -1.2114368214    1.7060700511   -1.3372914240
C        0.2112365467   -0.2958560898    1.1252726294
H        0.2966585118   -0.6431418227    2.1669761364
13   
Frame written by nebterpolator, Thu Mar  3 07:27:43 2022
C        1.3034339149    0.3431468119    0.2333440431
C        0.6301757149   -0.9935974876   -0.1375702383
C       -0.6739377544   -0.5174207747   -0.8250621568
C       -1.0837971411    0.1863199825    0.4387364016
C       -0.5405569156    1.0158562494   -0.7398804768
N        0.7980859836    1.4202014911   -0.5305790376
H        2.3389958946    0.3676837708    0.5544935681
H        1.1684079390   -1.9228026975   -0.2873799363
H       -1.2682371361   -1.0353839584   -1.5694244973
H       -2.0627028675    0.3281351243    0.8828650657
H       -1.1999773692    1.6590239068   -1.3122665600
C        0.2205489967   -0.2907708487    1.1265501779
H        0.3695607401   -0.5603915698    2.1661736469
