13   
Frame written by nebterpolator, Wed Mar  2 21:13:23 2022
C        1.4686732685    0.4434648827   -0.3530738584
C        0.8844898150   -0.7852997800    0.2158355540
C       -0.7449175472   -0.8064664611    0.1739773918
C       -1.3117588051    0.4547650255   -0.3303380734
C       -0.5481144770    1.5423396026   -0.5757289614
N        0.8460300516    1.5355555592   -0.6348741906
H        2.5303145794    0.3995219587   -0.6079325517
H        1.4411642486   -1.6994013932    0.0000858207
H       -1.2584586499   -1.7272652578   -0.1086158969
H       -2.3826894973    0.4875523101   -0.5153848406
H       -1.0043020908    2.4797194493   -0.8832408489
C        0.0350901728   -0.7972998302    1.4092860838
H        0.0444789317   -1.5271860652    2.2100043717
13   
Frame written by nebterpolator, Wed Mar  2 21:13:23 2022
C        1.4714614591    0.4104613995   -0.3592958161
C        0.8768349319   -0.8041160726    0.1474257580
C       -0.7268440252   -0.8284590289    0.0967421802
C       -1.3013739552    0.4138761100   -0.3298115375
C       -0.5402890493    1.5313698341   -0.5500119582
N        0.8481288451    1.5366352068   -0.6274281738
H        2.5459465331    0.3805154967   -0.5570371618
H        1.4424366968   -1.7303833090   -0.0077851489
H       -1.2593076996   -1.7629484898   -0.1355931495
H       -2.3860083785    0.4586485661   -0.4554206050
H       -1.0169552394    2.4798929060   -0.8110715988
C        0.0428226607   -0.6779165794    1.3911284341
H        0.0031472203   -1.4075760394    2.1981587773
13   
Frame written by nebterpolator, Wed Mar  2 21:13:23 2022
C        1.4717023356    0.3835717403   -0.3625642064
C        0.8569887814   -0.8275504359    0.0803542292
C       -0.6983788989   -0.8565999933    0.0167545587
C       -1.2882802303    0.3788727276   -0.3259366951
C       -0.5337365182    1.5206069334   -0.5277077142
N        0.8526865187    1.5375706609   -0.6240262213
H        2.5576494114    0.3645432648   -0.5022122742
H        1.4361709195   -1.7609625928   -0.0101776183
H       -1.2552958503   -1.7974799691   -0.1502804698
H       -2.3828661754    0.4315567930   -0.3926998092
H       -1.0301164431    2.4764811447   -0.7406546124
C        0.0523068479   -0.5591318718    1.3649625646
H       -0.0388306983   -1.2914784019    2.1741882683
13   
Frame written by nebterpolator, Wed Mar  2 21:13:23 2022
C        1.4725033752    0.3558513269   -0.3595129991
C        0.8449605116   -0.8549274122    0.0162107303
C       -0.6767457553   -0.8908462953   -0.0703376426
C       -1.2779570287    0.3471278903   -0.3147848321
C       -0.5273542084    1.5134650946   -0.5118117513
N        0.8531732948    1.5391406848   -0.6311650454
H        2.5637252001    0.3519472778   -0.4355225051
H        1.4325853888   -1.7880885356   -0.0125871447
H       -1.2557265298   -1.8296396953   -0.1592247668
H       -2.3747048154    0.4072113539   -0.3210477629
H       -1.0395423751    2.4718369712   -0.6769769593
C        0.0630563324   -0.4473764027    1.3345277464
H       -0.0779733903   -1.1757022584    2.1422329326
13   
Frame written by nebterpolator, Wed Mar  2 21:13:23 2022
C        1.4716468257    0.3340698377   -0.3499405990
C        0.8317423077   -0.8875401398   -0.0410023877
C       -0.6585515229   -0.9308253328   -0.1634942978
C       -1.2668770443    0.3209727402   -0.2942283090
C       -0.5202893029    1.5102514510   -0.5031494544
N        0.8532409150    1.5405295371   -0.6501731722
H        2.5621866710    0.3464601941   -0.3571052228
H        1.4251493524   -1.8167463724   -0.0150147456
H       -1.2548987546   -1.8629135528   -0.1639572313
H       -2.3607124968    0.3871141379   -0.2396940469
H       -1.0459836060    2.4678982837   -0.6241920257
C        0.0730539254   -0.3482649053    1.2947805189
H       -0.1097072695   -1.0610058787    2.1071709734
13   
Frame written by nebterpolator, Wed Mar  2 21:13:23 2022
C        1.4660801533    0.3165931901   -0.3318047445
C        0.8174757166   -0.9223372262   -0.0894307876
C       -0.6466809364   -0.9726668939   -0.2595536419
C       -1.2533714819    0.3015456824   -0.2623161282
C       -0.5126700065    1.5114666357   -0.5045674218
N        0.8522819385    1.5405548992   -0.6817726103
H        2.5513512501    0.3471057184   -0.2636436009
H        1.4142276905   -1.8466385525   -0.0197487559
H       -1.2514134430   -1.8961055294   -0.1720444314
H       -2.3408078882    0.3730575407   -0.1456374494
H       -1.0504592082    2.4662975907   -0.5895575197
C        0.0813000942   -0.2692624644    1.2440802865
H       -0.1273138790   -0.9496105911    2.0759968051
13   
Frame written by nebterpolator, Wed Mar  2 21:13:23 2022
C        1.4546229660    0.3038997197   -0.3054815910
C        0.8016467558   -0.9576125180   -0.1287670174
C       -0.6428568146   -1.0121838675   -0.3511648738
C       -1.2363626393    0.2881563405   -0.2208192049
C       -0.5043077101    1.5170102643   -0.5166100408
N        0.8510848541    1.5386807264   -0.7205640851
H        2.5297409021    0.3535155578   -0.1571499651
H        1.4006021638   -1.8768957448   -0.0286677570
H       -1.2489737773   -1.9262142444   -0.1910261180
H       -2.3146083639    0.3650293686   -0.0419965676
H       -1.0535255409    2.4668497884   -0.5774217302
C        0.0858673447   -0.2196312438    1.1826953409
H       -0.1229301404   -0.8406041471    2.0569736099
13   
Frame written by nebterpolator, Wed Mar  2 21:13:23 2022
C        1.4418953426    0.3128481727   -0.2776335997
C        0.7771145168   -1.0019707675   -0.1594801829
C       -0.6475528805   -1.0507793849   -0.4293929704
C       -1.2157848143    0.2778935629   -0.1749893307
C       -0.4918084769    1.5239034551   -0.5367114165
N        0.8559932373    1.5348749710   -0.7539335202
H        2.5002980024    0.3772527722   -0.0501839057
H        1.3802996481   -1.9126312380   -0.0413493486
H       -1.2553416389   -1.9515327445   -0.2198321014
H       -2.2829570479    0.3627382522    0.0610427759
H       -1.0526677062    2.4668663364   -0.5884729028
C        0.0824409619   -0.2094864223    1.1150929401
H       -0.0919291445   -0.7299769651    2.0558435629
13   
Frame written by nebterpolator, Wed Mar  2 21:13:23 2022
C        1.4281481500    0.3393484838   -0.2486371599
C        0.7538200741   -1.0512852459   -0.1806953489
C       -0.6631817125   -1.0847902800   -0.4973479551
C       -1.1915556208    0.2718145980   -0.1233767166
C       -0.4758421521    1.5285022738   -0.5628812744
N        0.8636677892    1.5268511299   -0.7793649290
H        2.4649401177    0.4159281943    0.0500484860
H        1.3628678351   -1.9492746822   -0.0567302591
H       -1.2769057241   -1.9675858113   -0.2596219413
H       -2.2461102963    0.3681858152    0.1637756725
H       -1.0505568669    2.4611127519   -0.6267264173
C        0.0746895066   -0.2292135943    1.0591320985
H       -0.0439811002   -0.6295936332    2.0624257449
13   
Frame written by nebterpolator, Wed Mar  2 21:13:23 2022
C        1.4094187875    0.3592899359   -0.2129350906
C        0.7473638537   -1.0899624276   -0.1902644851
C       -0.6898864651   -1.1034632593   -0.5646086229
C       -1.1632409599    0.2728560732   -0.0629887969
C       -0.4620189326    1.5307309335   -0.5903858899
N        0.8652802976    1.5126521173   -0.8032869004
H        2.4239554739    0.4510368885    0.1451044273
H        1.3610772602   -1.9755304001   -0.0733040636
H       -1.3142646901   -1.9668485050   -0.3182007644
H       -2.2039064952    0.3812044780    0.2714729145
H       -1.0557217886    2.4445910407   -0.6949676249
C        0.0699092331   -0.2607329162    1.0259477390
H        0.0120344255   -0.5558239589    2.0684171580
13   
Frame written by nebterpolator, Wed Mar  2 21:13:23 2022
C        1.3803313967    0.3525936079   -0.1684632513
C        0.7507386836   -1.1024589418   -0.1892503926
C       -0.7084008678   -1.0967912641   -0.6266652771
C       -1.1315698976    0.2813211252    0.0027200908
C       -0.4522556486    1.5354437034   -0.6078724432
N        0.8556267362    1.4961565493   -0.8235715587
H        2.3800959846    0.4599968899    0.2310431365
H        1.3695960432   -1.9823668460   -0.0938958131
H       -1.3507751197   -1.9457426260   -0.3983882385
H       -2.1612910382    0.3949154813    0.3757890974
H       -1.0730101413    2.4137472313   -0.7892450150
C        0.0683661683   -0.2934247148    1.0126037472
H        0.0725477006   -0.5133901955    2.0751959176
13   
Frame written by nebterpolator, Wed Mar  2 21:13:23 2022
C        1.3440156565    0.3188815209   -0.1194649146
C        0.7520758304   -1.0857085075   -0.1827959675
C       -0.7045765848   -1.0649883352   -0.6748451533
C       -1.1013707593    0.2948689876    0.0684865962
C       -0.4503125436    1.5447911496   -0.6098433823
N        0.8422746188    1.4803266818   -0.8378274811
H        2.3403610045    0.4370948142    0.3034131885
H        1.3772341158   -1.9694490114   -0.1196652392
H       -1.3714966094   -1.9069146964   -0.4934419204
H       -2.1254565706    0.4031758494    0.4687229129
H       -1.1009381081    2.3666113634   -0.8974129517
C        0.0695081845   -0.3197255464    1.0114725281
H        0.1286817654   -0.4989642699    2.0832017843
13   
Frame written by nebterpolator, Wed Mar  2 21:13:23 2022
C        1.3178289784    0.3034309461   -0.0730335932
C        0.7418056477   -1.0750194279   -0.1749151573
C       -0.6931233642   -1.0232421424   -0.7094657673
C       -1.0745689241    0.3084906826    0.1352357060
C       -0.4543607162    1.5508574745   -0.6070004876
N        0.8344331525    1.4653445065   -0.8406162801
H        2.3142014548    0.4231475148    0.3571275528
H        1.3712548508   -1.9619670606   -0.1448013189
H       -1.3898972435   -1.8523112979   -0.5967157036
H       -2.0935956995    0.4095648617    0.5573230958
H       -1.1274727001    2.2967161372   -1.0175465498
C        0.0759372965   -0.3416486407    1.0202650487
H        0.1775572672   -0.5033635539    2.0941434546
13   
Frame written by nebterpolator, Wed Mar  2 21:13:23 2022
C        1.3011043922    0.3080425711   -0.0292534228
C        0.7166747342   -1.0729265037   -0.1681551768
C       -0.6735360540   -0.9759121233   -0.7280321831
C       -1.0521386541    0.3190660729    0.2002931265
C       -0.4631773642    1.5482683344   -0.6086753323
N        0.8279205263    1.4542452527   -0.8284250672
H        2.3018522507    0.4188935895    0.3920188104
H        1.3478630998   -1.9629192495   -0.1688559933
H       -1.4010660545   -1.7848363181   -0.7062779270
H       -2.0676751775    0.4124995237    0.6403153730
H       -1.1447991456    2.2096107866   -1.1373092237
C        0.0876899743   -0.3561403986    1.0347671017
H        0.2192874726   -0.5178915377    2.1075899146
13   
Frame written by nebterpolator, Wed Mar  2 21:13:23 2022
C        1.2895560206    0.3153856343    0.0141947098
C        0.6889561711   -1.0683164658   -0.1608543484
C       -0.6527240024   -0.9201306494   -0.7359229919
C       -1.0363565372    0.3251587886    0.2606154353
C       -0.4776989113    1.5306865627   -0.6182801277
N        0.8194474294    1.4421462644   -0.8094111714
H        2.2999461647    0.4127886636    0.4126627053
H        1.3174217891   -1.9640827024   -0.1890254683
H       -1.4036864757   -1.7026792327   -0.8263606568
H       -2.0489906211    0.4113778036    0.7170094015
H       -1.1557981002    2.1150654322   -1.2404400756
C        0.1051407893   -0.3612637399    1.0525958464
H        0.2547862836   -0.5361363592    2.1232167418
13   
Frame written by nebterpolator, Wed Mar  2 21:13:23 2022
C        1.2896584112    0.3349401601    0.0555915061
C        0.6665191507   -1.0709801000   -0.1518921411
C       -0.6472711181   -0.8606218053   -0.7406018307
C       -1.0295218210    0.3247485769    0.3151628911
C       -0.4942826789    1.4920770981   -0.6353971333
N        0.8116456100    1.4233873367   -0.7907660315
H        2.3103536456    0.4171393557    0.4180712187
H        1.2855845915   -1.9709693095   -0.2014119155
H       -1.4068014456   -1.6056353183   -0.9545882972
H       -2.0328392983    0.4097227170    0.7875092039
H       -1.1642611683    2.0175310312   -1.3195249904
C        0.1285007254   -0.3582372049    1.0756661616
H        0.2827153958   -0.5531025376    2.1421813584
13   
Frame written by nebterpolator, Wed Mar  2 21:13:23 2022
C        1.2961659952    0.3549655846    0.0938867938
C        0.6447678543   -1.0703685219   -0.1443995408
C       -0.6482703823   -0.7961102289   -0.7384457950
C       -1.0300253416    0.3187269767    0.3631119596
C       -0.5109026531    1.4357976074   -0.6545259566
N        0.8082990806    1.4013736494   -0.7707836447
H        2.3283930352    0.4176582268    0.4139445278
H        1.2504109208   -1.9769888647   -0.2120357949
H       -1.3968746579   -1.4987431077   -1.0856506378
H       -2.0229687398    0.4060680549    0.8490253441
H       -1.1753952435    1.9197663868   -1.3755311720
C        0.1546300253   -0.3457761201    1.0996076771
H        0.3017701068   -0.5663696433    2.1617962393
13   
Frame written by nebterpolator, Wed Mar  2 21:13:23 2022
C        1.3009987895    0.3548643533    0.1278540545
C        0.6315949115   -1.0540513361   -0.1363391951
C       -0.6555595291   -0.7231337011   -0.7342917975
C       -1.0360902688    0.3079094569    0.4022129981
C       -0.5248996325    1.3599330644   -0.6757431332
N        0.8017035046    1.3786163686   -0.7484970325
H        2.3460366224    0.4003752912    0.4107742162
H        1.2200882085   -1.9728880098   -0.2206600337
H       -1.3739138330   -1.3815904697   -1.2152994521
H       -2.0212459089    0.4018946836    0.8995172777
H       -1.1914223660    1.8273397807   -1.4061242556
C        0.1836003324   -0.3247281808    1.1189582277
H        0.3191091694   -0.5745413013    2.1776381257
13   
Frame written by nebterpolator, Wed Mar  2 21:13:23 2022
C        1.3037194261    0.3293802907    0.1533943604
C        0.6369635638   -1.0230106275   -0.1250004373
C       -0.6782567446   -0.6479072246   -0.7397700411
C       -1.0467202129    0.2911394538    0.4285202758
C       -0.5365256348    1.2555463701   -0.7048785673
N        0.7920994046    1.3595595773   -0.7216182321
H        2.3596891726    0.3664794809    0.4177880763
H        1.2041287116   -1.9578042243   -0.2241520899
H       -1.3579575347   -1.2624552530   -1.3305799353
H       -2.0244496616    0.4022502563    0.9334557621
H       -1.2140937228    1.7531546323   -1.4017941114
C        0.2145743128   -0.2970549030    1.1291356194
H        0.3468289199   -0.5692778290    2.1854993205
13   
Frame written by nebterpolator, Wed Mar  2 21:13:23 2022
C        1.3124905398    0.3249967559    0.1654010854
C        0.6310691745   -1.0116667622   -0.1179968340
C       -0.7044990054   -0.5920771815   -0.7555222637
C       -1.0543153208    0.2654510136    0.4461320265
C       -0.5431245831    1.1270125670   -0.7398807058
N        0.7953625718    1.3568561069   -0.6800163227
H        2.3717187271    0.3520929548    0.4290556947
H        1.1765262874   -1.9571330281   -0.2292548857
H       -1.3578576368   -1.1679215700   -1.4127510756
H       -2.0265714783    0.4083744294    0.9479987811
H       -1.2280542378    1.6960307596   -1.3717020368
C        0.2398517535   -0.2679733270    1.1308499309
H        0.3874032080   -0.5340427184    2.1876866058
13   
Frame written by nebterpolator, Wed Mar  2 21:13:23 2022
C        1.3177762897    0.3255932594    0.1681873515
C        0.6048898863   -1.0117254988   -0.1161461509
C       -0.7150233397   -0.5389908367   -0.7751441635
C       -1.0622982375    0.2279471336    0.4705753121
C       -0.5490500607    0.9932927433   -0.7638551816
N        0.8041628415    1.3783267221   -0.6236494114
H        2.3651165381    0.3429290828    0.4489662625
H        1.1192950764   -1.9574672544   -0.2444568955
H       -1.3471117254   -1.0766721015   -1.4729416271
H       -2.0207116347    0.4087472650    0.9442219879
H       -1.2176591413    1.6241911993   -1.3392424657
C        0.2583415736   -0.2447332343    1.1296078552
H        0.4422719338   -0.4714384799    2.1738771267
