13   
Frame written by nebterpolator, Thu Mar  3 10:37:32 2022
C        1.3124298484   -0.0975946439    0.0436157441
C        0.4498855437   -1.2273034426    0.4519224280
C       -0.8926964123   -1.1033291819    0.4848436928
C       -1.5382567658    0.1827420806    0.2616387570
C       -0.8211695858    1.2682934622   -0.0838731046
N        0.5722795659    1.2083535336   -0.3343067327
H        2.2232983203    0.0643887170    0.6254488622
H        0.9378922942   -2.1508412213    0.7558459933
H       -1.5110716912   -1.9466871404    0.7809235959
H       -2.5984363969    0.2871612308    0.4746464774
H       -1.2414452168    2.2700125292   -0.1119807278
C        1.1871675708    0.4342154903   -1.3192912543
H        1.9201229259    0.8105885861   -2.0294337316
13   
Frame written by nebterpolator, Thu Mar  3 10:37:32 2022
C        1.2923834564   -0.0607804369   -0.0001152817
C        0.4375058513   -1.2301177062    0.4575659193
C       -0.9086503720   -1.0940269850    0.5245723448
C       -1.5255289443    0.1565143463    0.2496005917
C       -0.7887147893    1.2740036235   -0.0238974203
N        0.5661047395    1.2536781863   -0.2139206115
H        2.2307354785    0.0515099138    0.5590799684
H        0.9659437460   -2.1393888674    0.7868375032
H       -1.5509428783   -1.9342260851    0.8179715817
H       -2.6108521231    0.2505315166    0.3519042646
H       -1.2479746652    2.2718620462   -0.0697441161
C        1.1865497296    0.3993245287   -1.3825031740
H        1.9534407709    0.8011159191   -2.0573515700
13   
Frame written by nebterpolator, Thu Mar  3 10:37:32 2022
C        1.2778127500   -0.0244980896   -0.0481112875
C        0.4251424528   -1.2453768847    0.4616052298
C       -0.9217305797   -1.0879211261    0.5719762796
C       -1.5159545049    0.1404125336    0.2335109289
C       -0.7716271554    1.2749063565    0.0321405040
N        0.5664341888    1.2838256349   -0.0878275700
H        2.2334588210    0.0305219150    0.4913204080
H        0.9847222577   -2.1262826671    0.8239687658
H       -1.5851911015   -1.9156302889    0.8623666468
H       -2.6110739754    0.2218324637    0.2243885794
H       -1.2577913858    2.2631773028   -0.0299180371
C        1.1941781603    0.3785489900   -1.4485308635
H        1.9816200721    0.8064838599   -2.0868895841
13   
Frame written by nebterpolator, Thu Mar  3 10:37:32 2022
C        1.2690799304    0.0196481863   -0.1044340183
C        0.4073090802   -1.2730115430    0.4698588894
C       -0.9371592201   -1.0866240005    0.6170550255
C       -1.5122176042    0.1258076042    0.2147811959
C       -0.7641437208    1.2712654305    0.0770780014
N        0.5678908367    1.2966837920    0.0395410968
H        2.2283867062    0.0067757946    0.4278184399
H        0.9944125943   -2.1182053912    0.8712013873
H       -1.6202975667   -1.8936792606    0.9136248114
H       -2.6046399866    0.1958822627    0.1135640832
H       -1.2668323600    2.2510690997    0.0082048250
C        1.2205962256    0.3752183201   -1.5207283404
H        2.0176150850    0.8291697049   -2.1275653969
13   
Frame written by nebterpolator, Thu Mar  3 10:37:32 2022
C        1.2703134718    0.0765899140   -0.1708355933
C        0.3760639924   -1.3135786797    0.4880917157
C       -0.9529618054   -1.0942406579    0.6493175655
C       -1.5153013229    0.1100158194    0.1924618913
C       -0.7628941335    1.2620948699    0.1061071847
N        0.5649805490    1.2888595817    0.1511982431
H        2.2169288053   -0.0180861954    0.3760671821
H        0.9888294048   -2.1186986359    0.9316471783
H       -1.6550472524   -1.8726067112    0.9712833813
H       -2.6031323234    0.1730420462    0.0395390571
H       -1.2724768326    2.2382025518    0.0466459445
C        1.2752885429    0.3968480324   -1.5943015086
H        2.0694089040    0.8715580645   -2.1872222417
13   
Frame written by nebterpolator, Thu Mar  3 10:37:32 2022
C        1.2902083687    0.1371175656   -0.2394207117
C        0.3438329002   -1.3562137178    0.5146427497
C       -0.9796631518   -1.1058214222    0.6640206032
C       -1.5297293925    0.0916176476    0.1662769394
C       -0.7682905163    1.2433966708    0.1220948116
N        0.5589616470    1.2572880598    0.2321957292
H        2.2071578126   -0.0482319720    0.3352174032
H        0.9781632088   -2.1180009237    1.0003383838
H       -1.6940004910   -1.8500392130    1.0285946310
H       -2.6156005653    0.1557795541    0.0053302512
H       -1.2737046065    2.2219231044    0.0855589719
C        1.3540315502    0.4430059869   -1.6539290036
H        2.1286332358    0.9281786595   -2.2609207589
13   
Frame written by nebterpolator, Thu Mar  3 10:37:32 2022
C        1.3259786175    0.1949072448   -0.3038232373
C        0.3094626453   -1.3927841908    0.5463994638
C       -1.0118242804   -1.1228369632    0.6609115549
C       -1.5527558624    0.0713845953    0.1339762032
C       -0.7768234226    1.2175659286    0.1273963945
N        0.5510229654    1.2082454034    0.2840814742
H        2.2026821994   -0.0848005521    0.2958714698
H        0.9609936369   -2.1115859600    1.0687061272
H       -1.7283903560   -1.8258799889    1.0892866616
H       -2.6400236404    0.1438294396   -0.0004374809
H       -1.2689893868    2.2026793247    0.1220108745
C        1.4428288543    0.5060294622   -1.6919411307
H        2.1858380296    0.9932462564   -2.3324383749
13   
Frame written by nebterpolator, Thu Mar  3 10:37:32 2022
C        1.3686957100    0.2385142875   -0.3576070028
C        0.2793831706   -1.4069115214    0.5802944270
C       -1.0480300963   -1.1425824826    0.6392119048
C       -1.5841623226    0.0518148905    0.0995865627
C       -0.7868686760    1.1840267053    0.1279980205
N        0.5397868334    1.1382030368    0.3227007227
H        2.2022812659   -0.1347682291    0.2531866298
H        0.9463551620   -2.0869284780    1.1332840117
H       -1.7546186002   -1.7997763196    1.1501007470
H       -2.6736107179    0.1371192341    0.0095015690
H       -1.2548573117    2.1807980282    0.1512189682
C        1.5315166974    0.5758270472   -1.7136870018
H        2.2341288855    1.0646638009   -2.3957895588
13   
Frame written by nebterpolator, Thu Mar  3 10:37:32 2022
C        1.4179206879    0.2738013650   -0.4030957951
C        0.2510184181   -1.4044971500    0.6193594628
C       -1.0898396403   -1.1626533192    0.6218930438
C       -1.6209743031    0.0322199232    0.0714649493
C       -0.7945132855    1.1441870767    0.1235017200
N        0.5311715459    1.0508269823    0.3498790506
H        2.2100042660   -0.1912665880    0.1984891193
H        0.9334488824   -2.0507061266    1.1902526697
H       -1.7801779712   -1.7790495826    1.2020026730
H       -2.7105491134    0.1335195077    0.0224883897
H       -1.2279423142    2.1561566146    0.1651056008
C        1.6123840840    0.6524209088   -1.7182278236
H        2.2680487433    1.1450403880   -2.4431130604
13   
Frame written by nebterpolator, Thu Mar  3 10:37:32 2022
C        1.4677606321    0.3061915940   -0.4387620033
C        0.2103951608   -1.3922533189    0.6699456245
C       -1.1216607991   -1.1827719638    0.6232428180
C       -1.6530865442    0.0158985987    0.0517759930
C       -0.7966756063    1.1028240076    0.1158377537
N        0.5224394677    0.9547858251    0.3682978368
H        2.2223927016   -0.2488232993    0.1325520395
H        0.9107305319   -2.0133918507    1.2407447722
H       -1.8004823814   -1.7768487159    1.2378382754
H       -2.7431244029    0.1328018372    0.0315321332
H       -1.1882245504    2.1309190198    0.1614711252
C        1.6807362504    0.7371943286   -1.7178830412
H        2.2887995398    1.2334739375   -2.4765933271
13   
Frame written by nebterpolator, Thu Mar  3 10:37:32 2022
C        1.5324923750    0.3632409901   -0.4730688377
C        0.1572667962   -1.4235000118    0.7300082938
C       -1.1593427463   -1.2172425888    0.6508562298
C       -1.6693891492   -0.0106014475    0.0349708384
C       -0.7812477613    1.0738620673    0.1122840448
N        0.5147445615    0.8980929356    0.3791197043
H        2.2496749432   -0.2760736610    0.0526154536
H        0.8677009899   -2.0193456002    1.2866414442
H       -1.8331384200   -1.7697285461    1.2863379651
H       -2.7566705093    0.1227284680    0.0016787662
H       -1.1459953736    2.1076419364    0.1544875151
C        1.7313028166    0.8262995636   -1.7200913508
H        2.2926014771    1.3246258944   -2.4958400669
13   
Frame written by nebterpolator, Thu Mar  3 10:37:32 2022
C        1.5414074918    0.3405450592   -0.4807242745
C        0.1530449968   -1.3368928514    0.7582168945
C       -1.1784933494   -1.2044720088    0.6469767870
C       -1.7062863304   -0.0092671366    0.0482144304
C       -0.7932777752    1.0335321265    0.1019697081
N        0.5074625546    0.7845886113    0.3819252006
H        2.2492348955   -0.3382254437    0.0079481330
H        0.8866930081   -1.9412645505    1.2901302036
H       -1.8370363294   -1.8015689496    1.2705536057
H       -2.7937218346    0.1386532639    0.0462957351
H       -1.1012370764    2.0884968115    0.1175608519
C        1.7593234922    0.8683581352   -1.7039566499
H        2.3128862564    1.3775169330   -2.4851106255
13   
Frame written by nebterpolator, Thu Mar  3 10:37:32 2022
C        1.5418662816    0.3133759932   -0.4864832381
C        0.1481179568   -1.2502886964    0.7736965112
C       -1.1981941284   -1.1881977290    0.6543468457
C       -1.7444775198   -0.0078883935    0.0726731169
C       -0.8049627108    0.9923227502    0.0831385372
N        0.4982981265    0.6627282820    0.3704071485
H        2.2485068841   -0.3937858852   -0.0365826829
H        0.9059929853   -1.8683795276    1.2703534197
H       -1.8358687577   -1.8342895388    1.2649167369
H       -2.8303094598    0.1586532478    0.1005324912
H       -1.0503338888    2.0657857660    0.0599845254
C        1.7773229716    0.9119782366   -1.6800845503
H        2.3440412594    1.4379854948   -2.4468988614
13   
Frame written by nebterpolator, Thu Mar  3 10:37:32 2022
C        1.5546138839    0.3091716359   -0.5032967681
C        0.1253071496   -1.2007106511    0.7937248505
C       -1.2258236946   -1.1838868488    0.6898369846
C       -1.7770048404   -0.0136971274    0.1066132006
C       -0.8065760650    0.9519640114    0.0602434269
N        0.4808557535    0.5503778565    0.3463974895
H        2.2590269858   -0.4292894642   -0.1015449865
H        0.9038569092   -1.8328707321    1.2382363044
H       -1.8435282931   -1.8616535104    1.2862542191
H       -2.8588151599    0.1770612547    0.1410497996
H       -0.9915657267    2.0346703239   -0.0191592697
C        1.7926377372    0.9775798941   -1.6545656066
H        2.3870153606    1.5212833577   -2.3837896445
13   
Frame written by nebterpolator, Thu Mar  3 10:37:32 2022
C        1.5565805836    0.3053346021   -0.5203092995
C        0.1070334246   -1.1705404562    0.7924933226
C       -1.2492142448   -1.1771112020    0.7329532352
C       -1.8038229973   -0.0148731558    0.1507013066
C       -0.8098258235    0.9157598822    0.0328778341
N        0.4611581204    0.4507365758    0.3087826380
H        2.2680695747   -0.4479810409   -0.1568724148
H        0.8992922831   -1.8191328844    1.1877264291
H       -1.8476774924   -1.8811269526    1.3184553440
H       -2.8806483476    0.1997292028    0.1892545968
H       -0.9430304807    1.9992737961   -0.1119473135
C        1.7984464235    1.0425850009   -1.6257980650
H        2.4436389763    1.5973466321   -2.2983176138
13   
Frame written by nebterpolator, Thu Mar  3 10:37:32 2022
C        1.5504258557    0.3080288627   -0.5350521041
C        0.0923203592   -1.1560634010    0.7752491444
C       -1.2673935074   -1.1698853625    0.7776440721
C       -1.8253375727   -0.0109583472    0.2008877444
C       -0.8154915866    0.8842218331    0.0046112114
N        0.4403120093    0.3632938307    0.2606942223
H        2.2738408134   -0.4530628994   -0.2050782645
H        0.8925198316   -1.8220170033    1.1247162701
H       -1.8483534459   -1.8951590743    1.3549257276
H       -2.8967752090    0.2251974974    0.2439212233
H       -0.9073419138    1.9606807725   -0.2083976753
C        1.7982611476    1.1144899053   -1.5909347187
H        2.5130132187    1.6512333860   -2.2031868532
13   
Frame written by nebterpolator, Thu Mar  3 10:37:32 2022
C        1.5431663165    0.3178954222   -0.5434810360
C        0.0788948728   -1.1511730217    0.7481049924
C       -1.2810076668   -1.1636098634    0.8200796796
C       -1.8421232518   -0.0020539776    0.2543182827
C       -0.8229768076    0.8558650172   -0.0247377907
N        0.4166887277    0.2831963041    0.2037004607
H        2.2779863661   -0.4506485617   -0.2477590661
H        0.8826666589   -1.8344993927    1.0545498001
H       -1.8466467350   -1.9072112784    1.3893360573
H       -2.9078721746    0.2536891355    0.3032535438
H       -0.8820459404    1.9189681046   -0.3048354292
C        1.8008682010    1.1972955116   -1.5396396700
H        2.5824014332    1.6822866004   -2.1128898247
13   
Frame written by nebterpolator, Thu Mar  3 10:37:32 2022
C        1.5414515303    0.3253255082   -0.5505179638
C        0.0649150093   -1.1528012148    0.7168790792
C       -1.2904331181   -1.1581524384    0.8592259916
C       -1.8534847502    0.0118733814    0.3068005317
C       -0.8319438310    0.8282908217   -0.0592671555
N        0.3897001209    0.2078664956    0.1376326432
H        2.2834417253   -0.4496579795   -0.2866849751
H        0.8677341609   -1.8516085947    0.9855844464
H       -1.8431676686   -1.9140132362    1.4229132436
H       -2.9120511257    0.2865982595    0.3651182785
H       -0.8658712688    1.8725935957   -0.4020110962
C        1.8138709713    1.2764336743   -1.4722337759
H        2.6358382443    1.7172517271   -2.0234392477
13   
Frame written by nebterpolator, Thu Mar  3 10:37:32 2022
C        1.5436376596    0.3273847289   -0.5613049955
C        0.0502483152   -1.1581455347    0.6839580337
C       -1.2966581108   -1.1533301678    0.8944212777
C       -1.8596774443    0.0292449927    0.3564112547
C       -0.8419542742    0.8010760438   -0.0977572448
N        0.3606945433    0.1366247450    0.0648077185
H        2.2904507861   -0.4502148549   -0.3228856891
H        0.8488449605   -1.8698832740    0.9207963103
H       -1.8382744503   -1.9151389849    1.4570114401
H       -2.9093841591    0.3234872455    0.4290349035
H       -0.8573685815    1.8226011873   -0.4978406001
C        1.8322228879    1.3415048042   -1.4006574674
H        2.6772178675    1.7647890688   -1.9259949417
13   
Frame written by nebterpolator, Thu Mar  3 10:37:32 2022
C        1.5486482587    0.3287952670   -0.5758461982
C        0.0343766382   -1.1636559310    0.6493046455
C       -1.3018795199   -1.1496786154    0.9269655119
C       -1.8622104916    0.0488099878    0.4060535999
C       -0.8517716838    0.7752107096   -0.1365024709
N        0.3299461534    0.0675670325   -0.0106771105
H        2.3004128699   -0.4457292575   -0.3569825590
H        0.8257029455   -1.8863244681    0.8571723362
H       -1.8334536793   -1.9159212069    1.4879288387
H       -2.9016150207    0.3630998810    0.4946790667
H       -0.8527668997    1.7686445317   -0.5915279541
C        1.8506690769    1.3945968124   -1.3291608243
H        2.7139413524    1.8145852569   -1.8214068820
13   
Frame written by nebterpolator, Thu Mar  3 10:37:32 2022
C        1.5601380436    0.3371451380   -0.5944839082
C        0.0164753850   -1.1657143194    0.6125679642
C       -1.3105454223   -1.1496573351    0.9605560751
C       -1.8657031540    0.0697428026    0.4612278542
C       -0.8590346408    0.7542662969   -0.1735766864
N        0.2981486448    0.0001995742   -0.0825709653
H        2.3172238345   -0.4250597684   -0.3916015609
H        0.7937043972   -1.8955951916    0.7895352642
H       -1.8310894102   -1.9234706538    1.5083370588
H       -2.8901182288    0.4027196057    0.5611058299
H       -0.8462267545    1.7066192793   -0.6820617315
C        1.8669135885    1.4356628466   -1.2555278794
H        2.7501137170    1.8531417250   -1.7135073147
