13
Frame written by nebterpolator, Wed Mar  2 11:26:55 2022
C      1.5231702074   0.3848421666  -0.2302202023
C      0.6818835944  -0.8596597199   0.0261073198
C     -0.6337825769  -0.5169814233  -0.7614113212
C     -1.1586708176   0.1354232450   0.5318720210
C     -0.5312376610   0.9630244680  -0.6810279451
N      0.8338895800   1.4116429241  -0.5732787156
H      2.5884165223   0.4562144810  -0.0161994091
H      1.1712917610  -1.8319383794  -0.0634436707
H     -1.1574084067  -1.1243740932  -1.4936532733
H     -2.1730857514   0.3727486115   0.8369039720
H     -1.2330231675   1.6128152464  -1.1936439812
C     -0.1138591228  -0.5385726553   1.2900726753
H      0.2024158383  -0.4651848709   2.3279225299
13
Frame written by nebterpolator, Wed Mar  2 11:26:55 2022
C      1.5190761241   0.3832870498  -0.2266726043
C      0.6807495541  -0.8595339402   0.0181423148
C     -0.6191510370  -0.5092608404  -0.7834502882
C     -1.1476175344   0.1474366573   0.5318809894
C     -0.5323807275   0.9656575312  -0.6846865626
N      0.8295765460   1.4200147450  -0.5704351189
H      2.5834567348   0.4567239954   0.0066479418
H      1.1812204943  -1.8294791265  -0.0774587575
H     -1.1736246015  -1.1525012044  -1.4518827426
H     -2.1655052042   0.3860553199   0.8433578701
H     -1.2357644519   1.6153580307  -1.2054601012
C     -0.1151494614  -0.5426207322   1.2774282313
H      0.1951135645  -0.4811374855   2.3225888279
13
Frame written by nebterpolator, Wed Mar  2 11:26:55 2022
C      1.5147512159   0.3817584132  -0.2232266439
C      0.6794255544  -0.8599341287   0.0100863243
C     -0.6054733513  -0.5021101040  -0.8066388462
C     -1.1368294572   0.1590389603   0.5318785384
C     -0.5336717888   0.9685380526  -0.6887540756
N      0.8257353574   1.4284116431  -0.5674871645
H      2.5777389911   0.4571779497   0.0296141526
H      1.1913940754  -1.8268507057  -0.0912857778
H     -1.1888375110  -1.1802930844  -1.4095243728
H     -2.1575290041   0.3993687653   0.8502654687
H     -1.2382522090   1.6184005339  -1.2170737046
C     -0.1164251670  -0.5470186962   1.2650255235
H      0.1879732943  -0.4964875991   2.3171205778
13
Frame written by nebterpolator, Wed Mar  2 11:26:55 2022
C      1.5100841528   0.3805528621  -0.2199381774
C      0.6777931375  -0.8610606475   0.0019483621
C     -0.5932538403  -0.4957428604  -0.8312769916
C     -1.1265425755   0.1700754061   0.5319262182
C     -0.5351661861   0.9716535897  -0.6933930086
N      0.8229101482   1.4365581240  -0.5643754980
H      2.5708826140   0.4578046185   0.0525805430
H      1.2018418245  -1.8238214570  -0.1048732101
H     -1.2027325207  -1.2076263806  -1.3664348093
H     -2.1488738236   0.4127164100   0.8577487268
H     -1.2401885605   1.6220012025  -1.2283879982
C     -0.1177310284  -0.5519809222   1.2531027706
H      0.1809766581  -0.5111299452   2.3113730725
13
Frame written by nebterpolator, Wed Mar  2 11:26:55 2022
C      1.5048907983   0.3801113119  -0.2168983937
C      0.6756610734  -0.8632542190  -0.0062659183
C     -0.5833188908  -0.4905231821  -0.8579054331
C     -1.1171282991   0.1802824288   0.5321140979
C     -0.5369582587   0.9750066232  -0.6988782423
N      0.8219455140   1.4440488457  -0.5610035272
H      2.5622606169   0.4589369322   0.0753816146
H      1.2126277689  -1.8200344779  -0.1181289839
H     -1.2147596489  -1.2342903643  -1.3223524233
H     -2.1390872312   0.4261394396   0.8660263098
H     -1.2411115477   1.6262886499  -1.2392427346
C     -0.1191320538  -0.5578539984   1.2420326986
H      0.1741101587  -0.5248579896   2.3051209354
13
Frame written by nebterpolator, Wed Mar  2 11:26:55 2022
C      1.4986635949   0.3805514003  -0.2141489903
C      0.6725729636  -0.8671307117  -0.0146305796
C     -0.5770615315  -0.4867237763  -0.8874764185
C     -1.1089039748   0.1892201156   0.5327003354
C     -0.5392432515   0.9788070671  -0.7058224283
N      0.8235939756   1.4507262859  -0.5572235001
H      2.5508321404   0.4605402532   0.0982169971
H      1.2239686083  -1.8151271678  -0.1312220359
H     -1.2232127219  -1.2602736942  -1.2770600738
H     -2.1275063013   0.4398677986   0.8759703359
H     -1.2406883595   1.6317493709  -1.2497623806
C     -0.1206560888  -0.5652411025   1.2322099225
H      0.1676409466  -0.5369658392   2.2982488163
13
Frame written by nebterpolator, Wed Mar  2 11:26:55 2022
C      1.4914095415   0.3807874300  -0.2114702360
C      0.6685999823  -0.8722860857  -0.0232099959
C     -0.5734709681  -0.4835210916  -0.9192459923
C     -1.1011235496   0.1972373820   0.5337412949
C     -0.5419327914   0.9831926231  -0.7140173968
N      0.8262222402   1.4575143867  -0.5531615116
H      2.5374080321   0.4616895873   0.1216966090
H      1.2358527171  -1.8097397004  -0.1446117673
H     -1.2279751332  -1.2862146265  -1.2312728877
H     -2.1147509498   0.4540671455   0.8878435115
H     -1.2399073121   1.6384292489  -1.2605658756
C     -0.1221765746  -0.5737571141   1.2229771526
H      0.1618447656  -0.5473991853   2.2912970951
13
Frame written by nebterpolator, Wed Mar  2 11:26:55 2022
C      1.4828088081   0.3806213830  -0.2088221331
C      0.6633589122  -0.8789844033  -0.0320202181
C     -0.5729835996  -0.4807144460  -0.9533793650
C     -1.0936836028   0.2042428702   0.5355746456
C     -0.5451160783   0.9882444473  -0.7237598965
N      0.8297449308   1.4646090091  -0.5487625307
H      2.5217062832   0.4621651477   0.1460914803
H      1.2482856076  -1.8039107765  -0.1586156695
H     -1.2278042072  -1.3124369553  -1.1854448051
H     -2.1005563343   0.4691126903   0.9024502244
H     -1.2389566526   1.6465306243  -1.2720640049
C     -0.1237526220  -0.5837048294   1.2143477944
H      0.1569485549  -0.5557747615   2.2844044781
13
Frame written by nebterpolator, Wed Mar  2 11:26:55 2022
C      1.4723973310   0.3798586419  -0.2061101082
C      0.6563503457  -0.8874863389  -0.0409968850
C     -0.5759995824  -0.4779664474  -0.9900072918
C     -1.0864881354   0.2102295858   0.5389065412
C     -0.5489867546   0.9939120954  -0.7354399141
N      0.8340853473   1.4721130218  -0.5439836787
H      2.5033899686   0.4617599605   0.1714720801
H      1.2612018877  -1.7975799378  -0.1736244841
H     -1.2208691750  -1.3393348618  -1.1405849308
H     -2.0844383458   0.4857349108   0.9210831942
H     -1.2380846259   1.6560626836  -1.2848566932
C     -0.1256087397  -0.5955241803   1.2064116664
H      0.1530504784  -0.5617791336   2.2777305041
13
Frame written by nebterpolator, Wed Mar  2 11:26:55 2022
C      1.4599751756   0.3786990959  -0.2032777172
C      0.6470163744  -0.8980461076  -0.0498498992
C     -0.5819941411  -0.4751299134  -1.0294219508
C     -1.0794226958   0.2156183667   0.5451044940
C     -0.5539223613   0.9996842195  -0.7493502929
N      0.8390679409   1.4801055237  -0.5388744175
H      2.4824755487   0.4607917010   0.1971468449
H      1.2741411832  -1.7907963095  -0.1896047447
H     -1.2051809809  -1.3670904025  -1.0985866271
H     -2.0655911799   0.5054382140   0.9456879739
H     -1.2376685553   1.6662670087  -1.2995525467
C     -0.1284913598  -0.6097144445   1.1992067700
H      0.1495950515  -0.5658269520   2.2713721134
13
Frame written by nebterpolator, Wed Mar  2 11:26:55 2022
C      1.4459171545   0.3771750661  -0.2002853176
C      0.6369885012  -0.9081603950  -0.0572369781
C     -0.5854821581  -0.4732698332  -1.0714884610
C     -1.0728177938   0.2231898972   0.5582783912
C     -0.5609716677   1.0023825147  -0.7641610899
N      0.8425111087   1.4870797417  -0.5343748092
H      2.4618947941   0.4602263944   0.2170661863
H      1.2860606207  -1.7833078993  -0.2034685248
H     -1.1784423626  -1.3934413933  -1.0674850221
H     -2.0434169670   0.5328546055   0.9804769812
H     -1.2390812046   1.6728502969  -1.3156671598
C     -0.1352869609  -0.6253625679   1.1927393144
H      0.1421269356  -0.5722164277   2.2656064895
13
Frame written by nebterpolator, Wed Mar  2 11:26:55 2022
C      1.4381430430   0.3765051423  -0.1984775049
C      0.6370963388  -0.9059412624  -0.0587445348
C     -0.5698321316  -0.4770935197  -1.1008626369
C     -1.0696570774   0.2386286340   0.5789941705
C     -0.5688206112   0.9936555428  -0.7691702886
N      0.8372910856   1.4867289380  -0.5348602593
H      2.4575715601   0.4633031744   0.2116476899
H      1.2923036246  -1.7772132577  -0.2016020927
H     -1.1555709472  -1.4043804873  -1.0691513447
H     -2.0269069925   0.5672077834   1.0169773535
H     -1.2441391838   1.6637080579  -1.3239174751
C     -0.1488192868  -0.6315962320   1.1872580826
H      0.1213405783  -0.5935125139   2.2619088406
13
Frame written by nebterpolator, Wed Mar  2 11:26:55 2022
C      1.4423976470   0.3823416427  -0.1997065937
C      0.6459314392  -0.8947118327  -0.0542914365
C     -0.5358007950  -0.4890063498  -1.1123101895
C     -1.0695631930   0.2617099585   0.6011296577
C     -0.5753997357   0.9741889603  -0.7621166524
N      0.8248115363   1.4816217322  -0.5413063610
H      2.4716611830   0.4751522380   0.1837800731
H      1.2903228865  -1.7765195178  -0.1814541266
H     -1.1469310428  -1.3997127202  -1.0984994905
H     -2.0176064997   0.6054246833   1.0474643558
H     -1.2519168957   1.6388039494  -1.3217294091
C     -0.1664151228  -0.6261174484   1.1813487539
H      0.0885085926  -0.6331752956   2.2576914188
13
Frame written by nebterpolator, Wed Mar  2 11:26:55 2022
C      1.4504322706   0.3908872998  -0.2019096963
C      0.6551132296  -0.8840758983  -0.0482236430
C     -0.5027659418  -0.5022548726  -1.1154377743
C     -1.0704750143   0.2841549695   0.6188294168
C     -0.5808349527   0.9543951804  -0.7523062773
N      0.8122347733   1.4764110463  -0.5491135047
H      2.4886218402   0.4892057640   0.1539788870
H      1.2861310347  -1.7779779682  -0.1575321227
H     -1.1436396963  -1.3915548242  -1.1314666454
H     -2.0105037965   0.6408987998   1.0715058725
H     -1.2596295215   1.6126605037  -1.3165283589
C     -0.1812729084  -0.6177508112   1.1759964535
H      0.0565886830  -0.6749991890   2.2522073928
13
Frame written by nebterpolator, Wed Mar  2 11:26:55 2022
C      1.4590041926   0.4005806031  -0.2043301855
C      0.6630527168  -0.8753973025  -0.0415960819
C     -0.4729557756  -0.5154989692  -1.1158725403
C     -1.0715809501   0.3057846379   0.6338139248
C     -0.5862272169   0.9355395264  -0.7424187239
N      0.8004216564   1.4718132133  -0.5572327956
H      2.5045077600   0.5036886116   0.1255662445
H      1.2818777272  -1.7798437721  -0.1328189451
H     -1.1403658751  -1.3836106140  -1.1640531295
H     -2.0024810274   0.6759231098   1.0937085782
H     -1.2674196679   1.5873852634  -1.3109655696
C     -0.1935282448  -0.6090406935   1.1712693964
H      0.0256947049  -0.7173236144   2.2449298275
13
Frame written by nebterpolator, Wed Mar  2 11:26:55 2022
C      1.4660760983   0.4092380191  -0.2064271331
C      0.6707171102  -0.8671147781  -0.0350387769
C     -0.4459718757  -0.5278200837  -1.1158906454
C     -1.0726676653   0.3267005532   0.6474121118
C     -0.5920486632   0.9177443906  -0.7330705314
N      0.7889718649   1.4669991045  -0.5653904190
H      2.5182659305   0.5164735342   0.0986543249
H      1.2791542823  -1.7804441778  -0.1084104078
H     -1.1352783439  -1.3767019916  -1.1956377317
H     -1.9929638444   0.7108499146   1.1159647383
H     -1.2754467059   1.5635161184  -1.3056629653
C     -0.2036920991  -0.6000034304   1.1672865389
H     -0.0051160889  -0.7594371731   2.2362108967
13
Frame written by nebterpolator, Wed Mar  2 11:26:55 2022
C      1.4716047265   0.4170175847  -0.2083223508
C      0.6777756080  -0.8595244072  -0.0286613835
C     -0.4214630338  -0.5392573579  -1.1162699891
C     -1.0735259514   0.3469387893   0.6602009866
C     -0.5983632148   0.9009891233  -0.7244953104
N      0.7780445178   1.4623214381  -0.5734500622
H      2.5297513695   0.5277277106   0.0734450800
H      1.2777306445  -1.7799848994  -0.0844179565
H     -1.1281061461  -1.3710776048  -1.2262332388
H     -1.9814941483   0.7458292764   1.1389762822
H     -1.2838010618   1.5409975116  -1.3008696472
C     -0.2120753394  -0.5908928215   1.1641613698
H     -0.0360779707  -0.8010843434   2.2259362197
13
Frame written by nebterpolator, Wed Mar  2 11:26:55 2022
C      1.4761411960   0.4245419731  -0.2103758832
C      0.6841193235  -0.8528589199  -0.0226069004
C     -0.3987244259  -0.5503128264  -1.1173727822
C     -1.0741946499   0.3664418525   0.6730630031
C     -0.6050906024   0.8849567009  -0.7166054538
N      0.7681184937   1.4578003604  -0.5813173107
H      2.5391378294   0.5381254570   0.0493897772
H      1.2768577382  -1.7786642400  -0.0607536301
H     -1.1190567036  -1.3663252774  -1.2562633905
H     -1.9678315879   0.7805447612   1.1630324931
H     -1.2921010890   1.5192878979  -1.2962213633
C     -0.2197048341  -0.5817592186   1.1620608424
H     -0.0676706882  -0.8417785207   2.2139705986
13
Frame written by nebterpolator, Wed Mar  2 11:26:55 2022
C      1.4799811304   0.4324542425  -0.2128983144
C      0.6895921428  -0.8471881717  -0.0169999790
C     -0.3772833552  -0.5613701197  -1.1192166327
C     -1.0746580101   0.3851071455   0.6864660552
C     -0.6120837807   0.8692500341  -0.7091774370
N      0.7597539714   1.4531420010  -0.5888628983
H      2.5466363049   0.5483345401   0.0259966908
H      1.2760162935  -1.7766820654  -0.0373522529
H     -1.1083550774  -1.3621162617  -1.2860526611
H     -1.9519006339   0.8148021033   1.1882405753
H     -1.3001068539   1.4980804412  -1.2914520032
C     -0.2274106846  -0.5725961129   1.1608646401
H     -0.1001814471  -0.8812177763   2.2004442171
13
Frame written by nebterpolator, Wed Mar  2 11:26:55 2022
C      1.4832486329   0.4412045493  -0.2161262356
C      0.6940212225  -0.8426277791  -0.0119561446
C     -0.3569467679  -0.5726728875  -1.1218537019
C     -1.0748867313   0.4027993771   0.7007358902
C     -0.6192646056   0.8536323184  -0.7020952575
N      0.7534430591   1.4481280210  -0.5959754882
H      2.5522368532   0.5587742466   0.0030011171
H      1.2748827965  -1.7741162474  -0.0141933696
H     -1.0960180938  -1.3582838813  -1.3157880204
H     -1.9334814468   0.8484450184   1.2147518693
H     -1.3076463155   1.4772273076  -1.2863839185
C     -0.2357289006  -0.5633939930   1.1605510426
H     -0.1338597026  -0.9191160501   2.1853322172
13
Frame written by nebterpolator, Wed Mar  2 11:26:55 2022
C      1.4859020437   0.4511733031  -0.2203155055
C      0.6971543152  -0.8394708692  -0.0076655859
C     -0.3378318110  -0.5843924569  -1.1255150096
C     -1.0748738523   0.4192210038   0.7162636796
C     -0.6266301431   0.8380169442  -0.6953963872
N      0.7499165385   1.4425697240  -0.6024742521
H      2.5555181587   0.5696886587  -0.0196507169
H      1.2731921564  -1.7708581010   0.0086050240
H     -1.0818117821  -1.3547341004  -1.3455114936
H     -1.9119844478   0.8811065074   1.2427969031
H     -1.3144598706   1.4567112414  -1.2808396820
C     -0.2450954210  -0.5542304618   1.1614088622
H     -0.1689958844  -0.9548013931   2.1682941639
13
Frame written by nebterpolator, Wed Mar  2 11:26:55 2022
C      1.4883380807   0.4611867362  -0.2246993486
C      0.7000264424  -0.8366538472  -0.0035967991
C     -0.3191130011  -0.5961010632  -1.1295300026
C     -1.0747792215   0.4352578750   0.7321245375
C     -0.6340775098   0.8225695725  -0.6888981577
N      0.7469460875   1.4370228444  -0.6088647649
H      2.5580922886   0.5804360115  -0.0420450138
H      1.2714543361  -1.7673283210   0.0312447171
H     -1.0670333211  -1.3513202818  -1.3751504439
H     -1.8896438778   0.9133876730   1.2712644113
H     -1.3211120348   1.4363557128  -1.2751893618
C     -0.2545799595  -0.5450169689   1.1627013911
H     -0.2045183096  -0.9897959433   2.1506388354
13
Frame written by nebterpolator, Wed Mar  2 11:26:55 2022
C      1.4905838781   0.4711775155  -0.2292302004
C      0.7027017720  -0.8341092217   0.0002850662
C     -0.3007350927  -0.6077747574  -1.1338531143
C     -1.0746136457   0.4509684029   0.7482589630
C     -0.6415991178   0.8072959350  -0.6825858995
N      0.7443936819   1.4315185571  -0.6151779547
H      2.5600656925   0.5909836336  -0.0641922198
H      1.2696991906  -1.7635565714   0.0537405531
H     -1.0517684345  -1.3480311925  -1.4047025931
H     -1.8666043165   0.9453307314   1.3000824204
H     -1.3276382186   1.4161472669  -1.2694561774
C     -0.2641273627  -0.5357495884   1.1643775688
H     -0.2403580266  -1.0242007111   2.1324535877
