13   
Frame written by nebterpolator, Thu Mar  3 03:23:26 2022
C        1.5482631015    0.2439600781   -0.2499162964
C        0.5831613954   -0.9257548257   -0.0945058348
C       -0.7090733236   -0.3596409117   -0.7859874656
C       -1.1198146451    0.1988849191    0.5900884062
C       -0.4422720388    1.0837288812   -0.5510927869
N        0.9666768840    1.3699051016   -0.4517862960
H        2.6206041138    0.1766951608   -0.0731473905
H        0.9604500354   -1.9282857562   -0.3077102016
H       -1.3183502057   -0.8222857861   -1.5565333331
H       -2.0927552132    0.5054232907    0.9613640526
H       -1.0832845491    1.8562957945   -0.9634132650
C       -0.1337518241   -0.6625006690    1.2284612501
H        0.2201462699   -0.7364252773    2.2541791605
13   
Frame written by nebterpolator, Thu Mar  3 03:23:26 2022
C        1.5913935791    0.2673537038   -0.2821801489
C        0.6446591344   -0.9064054433   -0.1399808451
C       -0.6589369339   -0.3948847659   -0.7416500855
C       -1.1261977553    0.2926970388    0.6790800042
C       -0.4359100674    1.0629411599   -0.5377122308
N        0.9712122729    1.3992870850   -0.4748757027
H        2.6828223130    0.2164125327   -0.1677935446
H        1.0128557484   -1.9290919125   -0.3182031842
H       -1.2708614081   -0.8782279954   -1.5143467640
H       -2.1137555522    0.6173367838    1.0232119680
H       -1.0996672031    1.8134684781   -0.9865998944
C       -0.2797584763   -0.7105101077    1.2176362354
H        0.0821443485   -0.8503765574    2.2434141927
13   
Frame written by nebterpolator, Thu Mar  3 03:23:26 2022
C        1.6227177273    0.3010071538   -0.3169642505
C        0.6908476685   -0.8882411239   -0.1732640613
C       -0.6179095559   -0.4466198324   -0.7031767544
C       -1.1146512289    0.3878355031    0.7613682238
C       -0.4334257850    1.0560875959   -0.5266943587
N        0.9794049348    1.4226339605   -0.5096289839
H        2.7205082156    0.2641808814   -0.2325121039
H        1.0636072445   -1.9198338519   -0.3039673504
H       -1.2346531314   -0.9474711089   -1.4632361029
H       -2.1042371862    0.7293341069    1.0860304677
H       -1.1104389465    1.7754436583   -1.0107539520
C       -0.4021164107   -0.7196604915    1.1980186296
H       -0.0596535461   -1.0146964513    2.1947805970
13   
Frame written by nebterpolator, Thu Mar  3 03:23:26 2022
C        1.6591326454    0.3413827205   -0.3590234864
C        0.7330306172   -0.8841607563   -0.1974594475
C       -0.5910957147   -0.5020211175   -0.6659612161
C       -1.0871457824    0.4697324844    0.8276474191
C       -0.4357019623    1.0560278602   -0.5115901807
N        0.9924388436    1.4467507034   -0.5558341273
H        2.7537404994    0.3183213570   -0.2792648741
H        1.1149506345   -1.9151452814   -0.2768343967
H       -1.2149149133   -1.0162665337   -1.4078270055
H       -2.0696540316    0.8335533807    1.1531737595
H       -1.1251094613    1.7444405729   -1.0211863138
C       -0.4877084185   -0.7178750413    1.1658682473
H       -0.2419629561   -1.1747403487    2.1282916222
13   
Frame written by nebterpolator, Thu Mar  3 03:23:26 2022
C        1.7039876996    0.3801754245   -0.3949293130
C        0.7882767241   -0.8926057258   -0.2215538173
C       -0.5772938190   -0.5561701404   -0.6343581927
C       -1.0581849029    0.5368344214    0.8876299603
C       -0.4476293087    1.0564965392   -0.4870880458
N        1.0129488755    1.4649622842   -0.6120002405
H        2.7902655608    0.3693142810   -0.3232089738
H        1.1804418655   -1.9142679164   -0.2442892141
H       -1.2055836763   -1.0756940898   -1.3605433917
H       -2.0219861824    0.9329254155    1.2302679354
H       -1.1455950607    1.7197481063   -1.0151966033
C       -0.5736412637   -0.7250630999    1.1251604763
H       -0.4460065119   -1.2966554997    2.0501094202
13   
Frame written by nebterpolator, Thu Mar  3 03:23:26 2022
C        1.7499106919    0.4022921126   -0.4066571200
C        0.8747001678   -0.9009138145   -0.2470538655
C       -0.5883365547   -0.6033995391   -0.6138732530
C       -1.0317343501    0.5863981493    0.9385931380
C       -0.4722053384    1.0588222348   -0.4559360346
N        1.0371289482    1.4616124595   -0.6842884291
H        2.8258674876    0.4039592371   -0.3615142853
H        1.2764605790   -1.9048371986   -0.2038791699
H       -1.2178548922   -1.1200311370   -1.3260254690
H       -1.9629997913    1.0200909373    1.3161055092
H       -1.1712521338    1.7077016152   -0.9938032101
C       -0.6603520332   -0.7325116135    1.0783707256
H       -0.6593327807   -1.3791834430    1.9599614636
13   
Frame written by nebterpolator, Thu Mar  3 03:23:26 2022
C        1.7788405195    0.4018696200   -0.4357151547
C        0.9621411926   -0.9019497105   -0.2809479501
C       -0.5910044525   -0.6475258035   -0.5924041136
C       -0.9982908224    0.6258608853    0.9876004970
C       -0.4976875262    1.0682810315   -0.4177420189
N        1.0525472898    1.4483380583   -0.7575454961
H        2.8485276673    0.4228092776   -0.3792536843
H        1.3776001029   -1.8852334803   -0.1609891932
H       -1.2247706408   -1.1612108531   -1.2950104274
H       -1.8938162957    1.0895602324    1.4089883802
H       -1.1993685963    1.7036373055   -0.9656137942
C       -0.7270803263   -0.7275725755    1.0359655204
H       -0.8876381118   -1.4368639877    1.8526674350
13   
Frame written by nebterpolator, Thu Mar  3 03:23:26 2022
C        1.7794149318    0.3594759262   -0.4936157933
C        1.0446306432   -0.8923688866   -0.3382942420
C       -0.5633532349   -0.7103759484   -0.5690194913
C       -0.9779002202    0.6612375395    1.0411738040
C       -0.5160139471    1.0993280803   -0.3653096878
N        1.0430466828    1.4410012801   -0.8164779987
H        2.8511445190    0.4072530105   -0.3850235400
H        1.4880409117   -1.8483241170   -0.1224062981
H       -1.1978066255   -1.2207103103   -1.2755743120
H       -1.8330416116    1.1457460545    1.5098234386
H       -1.2185744608    1.7247630769   -0.9265770816
C       -0.8156691196   -0.7063165160    0.9921440190
H       -1.0839184690   -1.4607091898    1.7491571832
13   
Frame written by nebterpolator, Thu Mar  3 03:23:26 2022
C        1.7330076574    0.3216558927   -0.5505757291
C        1.0530448217   -0.9004531058   -0.3880987538
C       -0.4617503215   -0.8074099177   -0.5419199434
C       -0.9636534825    0.6947920568    1.0834742101
C       -0.5143218043    1.1656567701   -0.3002266034
N        1.0095594198    1.4547764613   -0.8432638600
H        2.8221987215    0.3723910129   -0.4378376144
H        1.5524492750   -1.8255371615   -0.1018226780
H       -1.0906145009   -1.3128883900   -1.2795036887
H       -1.7804531038    1.1764699600    1.6086427353
H       -1.2218156538    1.7836664162   -0.8759225147
C       -0.9043280552   -0.6765411555    0.9476196188
H       -1.2333229733   -1.4465788395    1.6794348211
13   
Frame written by nebterpolator, Thu Mar  3 03:23:26 2022
C        1.6993514311    0.3283859761   -0.5788594731
C        1.0321816687   -0.9456800813   -0.4294319372
C       -0.3919557636   -0.9375287784   -0.5146224077
C       -0.9528382077    0.7205370326    1.0751054187
C       -0.5120443593    1.2388809835   -0.2529168618
N        0.9938855871    1.4616273836   -0.8617925775
H        2.7942103176    0.3745834450   -0.4705349317
H        1.5928779150   -1.8288849427   -0.0977247727
H       -1.0043526966   -1.4152689441   -1.2926586634
H       -1.6693503454    1.1859148235    1.7328212786
H       -1.2142227497    1.8726057205   -0.8221921059
C       -0.9953536419   -0.6488860705    0.8865328739
H       -1.3723891553   -1.4062865479    1.6262741597
13   
Frame written by nebterpolator, Thu Mar  3 03:23:26 2022
C        1.6860064928    0.3543282333   -0.5680103981
C        1.0312697471   -0.9957916780   -0.4636302176
C       -0.3927133066   -1.0450965672   -0.4963803974
C       -1.0122422959    0.7267689864    1.0088857186
C       -0.5226251947    1.2926757266   -0.2361651596
N        0.9949596291    1.4561832443   -0.8504739889
H        2.7771547891    0.4007817580   -0.4714317822
H        1.6326969856   -1.8374120531   -0.1051066191
H       -0.9746525294   -1.5063792233   -1.2957203156
H       -1.4619015503    1.1901314709    1.8599398787
H       -1.1986857552    1.9569717284   -0.7945903315
C       -1.0828466033   -0.6344778851    0.8262850083
H       -1.4764204083   -1.3586837413    1.5863986043
13   
Frame written by nebterpolator, Thu Mar  3 03:23:26 2022
C        1.6626186474    0.3367845818   -0.5626494110
C        1.0688097045   -0.9915706137   -0.4510642485
C       -0.3961500488   -1.1082644384   -0.4837386194
C       -1.0944458959    0.7249446883    0.9650918929
C       -0.5383942722    1.3360845522   -0.2248328951
N        0.9683205189    1.4374928109   -0.8347111185
H        2.7532519054    0.3978382185   -0.5036141534
H        1.6941365662   -1.8181646770   -0.1039427923
H       -0.9412162149   -1.5943850703   -1.2893918114
H       -1.2279360485    1.1884773200    1.9504433991
H       -1.1833402504    2.0394459300   -0.7630822058
C       -1.1719364240   -0.6266328792    0.7755722618
H       -1.5937181878   -1.3220504232    1.5259197018
13   
Frame written by nebterpolator, Thu Mar  3 03:23:26 2022
C        1.6152752898    0.2831978655   -0.5663194148
C        1.0941026394   -0.9806287763   -0.4603410524
C       -0.3709732827   -1.1923316022   -0.4286995883
C       -1.0962974646    0.7342343838    0.9264140998
C       -0.5080755716    1.4135128889   -0.1996421957
N        0.9092850080    1.4208625956   -0.8116546655
H        2.7120427384    0.3676769127   -0.5579403567
H        1.7651621816   -1.7991732958   -0.1749421831
H       -0.8951182840   -1.7450884028   -1.2094981492
H       -1.2323834407    1.2002076923    1.9187223891
H       -1.1297913289    2.1803229071   -0.6759485342
C       -1.1979771014   -0.6125330240    0.7418096738
H       -1.6652513833   -1.2702601449    1.4980399774
13   
Frame written by nebterpolator, Thu Mar  3 03:23:26 2022
C        1.5842465531    0.2754693253   -0.5744326538
C        1.0871634177   -0.9922833529   -0.4683572171
C       -0.3512395722   -1.2625247121   -0.3609617423
C       -1.0882242341    0.7413200047    0.8736725895
C       -0.4590559669    1.4773357883   -0.1786790748
N        0.8815223751    1.4178191571   -0.7756350900
H        2.6803750072    0.3700362960   -0.6235884003
H        1.7942013310   -1.8050341459   -0.2603670259
H       -0.8537481478   -1.9099801696   -1.0808410539
H       -1.3238744016    1.2133130021    1.8415103702
H       -1.0482227764    2.3124855954   -0.5784134836
C       -1.1915918665   -0.6090455320    0.7153111460
H       -1.7115517188   -1.2289112562    1.4707816360
13   
Frame written by nebterpolator, Thu Mar  3 03:23:26 2022
C        1.5601723541    0.2746480790   -0.5907373509
C        1.0707565733   -0.9974040052   -0.4726420495
C       -0.3222290911   -1.3090576812   -0.2938749561
C       -1.0885038824    0.7482479574    0.8233650711
C       -0.4145721815    1.5244379995   -0.1573968028
N        0.8702430144    1.4249498699   -0.7392324395
H        2.6540800869    0.3717196453   -0.6959705364
H        1.8019232817   -1.8094646756   -0.3448928468
H       -0.7970266250   -2.0631002953   -0.9230858174
H       -1.4425987430    1.2254811900    1.7484563538
H       -0.9658515876    2.4171100503   -0.4828651266
C       -1.1754633162   -0.6081109336    0.6944014738
H       -1.7509298835   -1.1994572005    1.4344750272
13   
Frame written by nebterpolator, Thu Mar  3 03:23:26 2022
C        1.5429324766    0.2752728449   -0.6132146721
C        1.0600363522   -0.9992545092   -0.4787540846
C       -0.2937275851   -1.3426993581   -0.2268710626
C       -1.0955852599    0.7550997550    0.7768947777
C       -0.3767111808    1.5589800523   -0.1340292854
N        0.8697962175    1.4343504198   -0.7066976721
H        2.6316026480    0.3721765137   -0.7711464625
H        1.8040961302   -1.8107125810   -0.4269430115
H       -0.7337167898   -2.1969933707   -0.7420299607
H       -1.5713429521    1.2365789606    1.6406018073
H       -0.8855299995    2.5002979653   -0.3862724356
C       -1.1606755734   -0.6072236354    0.6767211651
H       -1.7911744839   -1.1758730573    1.3917408968
13   
Frame written by nebterpolator, Thu Mar  3 03:23:26 2022
C        1.5303618864    0.2761063296   -0.6401074998
C        1.0573504769   -0.9999793514   -0.4859593722
C       -0.2663602453   -1.3688928787   -0.1577905903
C       -1.1103102890    0.7616105720    0.7313153204
C       -0.3464848840    1.5843122428   -0.1091932685
N        0.8760987688    1.4433858000   -0.6773464384
H        2.6100618075    0.3713806699   -0.8506100413
H        1.8048463166   -1.8098329089   -0.5044495622
H       -0.6623642213   -2.3082263594   -0.5410845463
H       -1.6967724820    1.2462424790    1.5206091699
H       -0.8095910878    2.5659032385   -0.2882826536
C       -1.1518450631   -0.6062875988    0.6604204666
H       -1.8349909837   -1.1557222346    1.3424790155
13   
Frame written by nebterpolator, Thu Mar  3 03:23:26 2022
C        1.5186221473    0.2762216972   -0.6706786023
C        1.0578125833   -1.0009413050   -0.4904441888
C       -0.2351126780   -1.3897939221   -0.0866161588
C       -1.1322395557    0.7683690238    0.6836633882
C       -0.3245491960    1.6041367892   -0.0839752738
N        0.8852280430    1.4526998787   -0.6504255084
H        2.5848218070    0.3681027201   -0.9370851319
H        1.8023456991   -1.8081105898   -0.5726581724
H       -0.5748860727   -2.3933176293   -0.3228980141
H       -1.8113285337    1.2534825870    1.3925971609
H       -0.7412778254    2.6160596741   -0.1913137912
C       -1.1488719356   -0.6066575850    0.6440396774
H       -1.8805644828   -1.1402513391    1.2857946150
13   
Frame written by nebterpolator, Thu Mar  3 03:23:26 2022
C        1.5061765634    0.2752996790   -0.7031777004
C        1.0618209745   -1.0025681624   -0.4879262815
C       -0.2022906458   -1.4064946908   -0.0112513803
C       -1.1591247642    0.7753111283    0.6334816471
C       -0.3090083148    1.6212101823   -0.0589274651
N        0.8941015234    1.4617348435   -0.6275988789
H        2.5523711404    0.3627296315   -1.0325798803
H        1.7981827350   -1.8060988156   -0.6290432248
H       -0.4716534805   -2.4515605372   -0.0940349135
H       -1.9155628427    1.2577950533    1.2577653323
H       -0.6792586196    2.6548428647   -0.0981120479
C       -1.1500698677   -0.6107891124    0.6281464810
H       -1.9256844014   -1.1314120642    1.2232583121
13   
Frame written by nebterpolator, Thu Mar  3 03:23:26 2022
C        1.4932474442    0.2736862958   -0.7354160971
C        1.0702219509   -1.0058398370   -0.4758821233
C       -0.1676685841   -1.4212706918    0.0776069561
C       -1.1884558238    0.7831835131    0.5841658081
C       -0.2978249931    1.6393651876   -0.0317046778
N        0.9031176356    1.4719248790   -0.6070970380
H        2.5097542565    0.3548272686   -1.1399215439
H        1.7916815346   -1.8041849752   -0.6799472089
H       -0.3582009090   -2.4886224062    0.1319309591
H       -2.0154485612    1.2590710243    1.1119270921
H       -0.6225343843    2.6876761449   -0.0151249294
C       -1.1508683324   -0.6209640071    0.6199867886
H       -1.9670212340   -1.1288523961    1.1594760143
13   
Frame written by nebterpolator, Thu Mar  3 03:23:26 2022
C        1.4820991299    0.2725424787   -0.7656308041
C        1.0840257784   -1.0146457698   -0.4541019803
C       -0.1320596948   -1.4384496080    0.1910028003
C       -1.2190331892    0.7946116283    0.5410725102
C       -0.2920239079    1.6649143012    0.0010751015
N        0.9149157957    1.4872326232   -0.5873994130
H        2.4545514498    0.3436145674   -1.2579293577
H        1.7798790837   -1.8022204571   -0.7330779992
H       -0.2403507677   -2.5109582831    0.3402085090
H       -2.1144497973    1.2568458348    0.9497509139
H       -0.5713653482    2.7196519059    0.0483175314
C       -1.1473142860   -0.6418809140    0.6292035782
H       -1.9988742464   -1.1312583075    1.0975086099
