13   
Frame written by nebterpolator, Wed Mar  2 13:38:10 2022
C        1.3391982006    0.8949661606   -0.5132029640
C        0.2986262970   -1.4060198555   -0.2409339399
C       -0.9094341894   -1.0965453261    0.3087215996
C       -1.4023215397    0.2190729393    0.6293318866
C       -0.7723250425    1.4351560426    0.4481363436
N        0.4355386852    1.7898203683   -0.0521552341
H        2.2496294514    1.3812045761   -0.8709498022
H        0.5110239971   -2.4584455753   -0.4185099411
H       -1.5814082475   -1.9223273493    0.5336194848
H       -2.3961128600    0.2657600052    1.0682431779
H       -1.3513514400    2.3037290084    0.7693430691
C        1.3396267696   -0.4842078085   -0.6180921256
H        2.2393099178   -0.9221631860   -1.0435515545
13   
Frame written by nebterpolator, Wed Mar  2 13:38:10 2022
C        1.3597477852    0.8995958493   -0.4758871859
C        0.2940480739   -1.4314778850   -0.1897996682
C       -0.9075399486   -1.0902915759    0.3487484267
C       -1.4036149203    0.2132437867    0.5901746370
C       -0.7659159180    1.4200093214    0.4271849512
N        0.4492416379    1.7661701738   -0.0044071400
H        2.3003084892    1.3871542464   -0.7006779175
H        0.5320264532   -2.4935226257   -0.3116650499
H       -1.5859564324   -1.9146277848    0.6169411495
H       -2.4252339729    0.2737061471    0.9900215883
H       -1.3612328862    2.2979192124    0.7324867971
C        1.3418477434   -0.4432978897   -0.7432624982
H        2.1722738955   -0.8845809759   -1.2798580903
13   
Frame written by nebterpolator, Wed Mar  2 13:38:10 2022
C        1.3800345333    0.8960138481   -0.4375548977
C        0.3003731596   -1.4517042877   -0.1381082310
C       -0.9023936455   -1.0926193426    0.3894188581
C       -1.4119792029    0.2085693612    0.5552527149
C       -0.7650054059    1.4145403466    0.4058154024
N        0.4695298353    1.7493593526    0.0381609272
H        2.3564673359    1.3575837802   -0.5270246771
H        0.5690004052   -2.5132174346   -0.2131702181
H       -1.5775001300   -1.9108734535    0.6943859142
H       -2.4515838906    0.2780652427    0.9128085968
H       -1.3689857149    2.2958081923    0.6919258858
C        1.3236547726   -0.3987907079   -0.8631735370
H        2.0783879480   -0.8327348976   -1.5087367385
13   
Frame written by nebterpolator, Wed Mar  2 13:38:10 2022
C        1.4024258336    0.8864917406   -0.3999298336
C        0.3104001050   -1.4724417587   -0.0835299322
C       -0.8976233640   -1.0985690959    0.4273003853
C       -1.4198735157    0.2029832310    0.5252073265
C       -0.7642988631    1.4124286763    0.3835067473
N        0.4902960599    1.7351798264    0.0690060738
H        2.4078029491    1.3010109147   -0.3522507070
H        0.6116848048   -2.5279862534   -0.1179311160
H       -1.5706879446   -1.9079738004    0.7615150600
H       -2.4731553923    0.2795396933    0.8420365232
H       -1.3743152601    2.2951591422    0.6501263534
C        1.3094457196   -0.3450016630   -0.9732858224
H        1.9678988677   -0.7608206532   -1.7317710584
13   
Frame written by nebterpolator, Wed Mar  2 13:38:10 2022
C        1.4291630145    0.8702669605   -0.3658673626
C        0.3202292780   -1.4963261564   -0.0230536757
C       -0.8961552454   -1.1061887209    0.4595166975
C       -1.4263180776    0.1956403287    0.4965498741
C       -0.7611959909    1.4103274967    0.3621773573
N        0.5100068851    1.7204819279    0.0936659188
H        2.4468766081    1.2213645312   -0.1862782257
H        0.6539116480   -2.5414032999   -0.0173505662
H       -1.5717578443   -1.9037822451    0.8163027454
H       -2.4904730436    0.2788395074    0.7743921770
H       -1.3749700105    2.2932812874    0.6134313544
C        1.3126215517   -0.2794509164   -1.0777282463
H        1.8480612268   -0.6630507011   -1.9457580479
13   
Frame written by nebterpolator, Wed Mar  2 13:38:10 2022
C        1.4582848961    0.8472067554   -0.3411081592
C        0.3260258566   -1.5221473962    0.0436923825
C       -0.9006962274   -1.1144320157    0.4852010256
C       -1.4338466814    0.1863897015    0.4642517572
C       -0.7552320652    1.4054554926    0.3448436787
N        0.5305685541    1.6992070081    0.1244558811
H        2.4725355572    1.1198052301   -0.0410450214
H        0.6921334882   -2.5525475191    0.0958014061
H       -1.5820681158   -1.8972338047    0.8621346454
H       -2.5069482251    0.2770112479    0.7032815192
H       -1.3686380795    2.2882720654    0.5894225091
C        1.3312531843   -0.2001249682   -1.1878340399
H        1.7366278580   -0.5368617972   -2.1430975844
13   
Frame written by nebterpolator, Wed Mar  2 13:38:10 2022
C        1.4990990815    0.8659602789   -0.3470198406
C        0.2911973384   -1.5896729840    0.1036992527
C       -0.9167346937   -1.1391576908    0.5218779829
C       -1.4383170183    0.1698065112    0.4279481237
C       -0.7412296687    1.3909136913    0.3330329529
N        0.5641532201    1.6767194996    0.1596976440
H        2.4863298341    1.0208964390    0.0787255036
H        0.6899005692   -2.5878382770    0.2139292575
H       -1.6114508063   -1.8873973108    0.9151875797
H       -2.5184983131    0.2754644283    0.6214682168
H       -1.3539562846    2.2721879760    0.5787790550
C        1.3726437853   -0.0946228054   -1.3031714546
H        1.6768629560   -0.3732597563   -2.3041542736
13   
Frame written by nebterpolator, Wed Mar  2 13:38:10 2022
C        1.5371328399    0.8733432801   -0.3547512710
C        0.2490506095   -1.6556984233    0.1539549468
C       -0.9384277862   -1.1617746435    0.5525683605
C       -1.4452294969    0.1531428605    0.3889257899
C       -0.7264987964    1.3730543309    0.3249961108
N        0.5966033325    1.6407257700    0.2040470340
H        2.4922597356    0.8999300866    0.1677033964
H        0.6842368550   -2.6162978622    0.3363672767
H       -1.6453131670   -1.8739073942    0.9675133459
H       -2.5305918850    0.2744228694    0.5399610212
H       -1.3339577187    2.2546884323    0.5777320328
C        1.4121917004    0.0213437469   -1.4155830523
H        1.6485437774   -0.1829730535   -2.4434349918
13   
Frame written by nebterpolator, Wed Mar  2 13:38:10 2022
C        1.5424728564    0.7841406139   -0.3369490589
C        0.2614074527   -1.6443988899    0.2227654199
C       -0.9586258583   -1.1564875214    0.5490376786
C       -1.4641887758    0.1472570163    0.3553981670
C       -0.7204467371    1.3598233643    0.3211294353
N        0.6110555104    1.5702604671    0.2568880343
H        2.4897540665    0.7246534246    0.2089222025
H        0.7127868041   -2.5994583029    0.4495365535
H       -1.6691598772   -1.8621434777    0.9887779885
H       -2.5530445336    0.2752034267    0.4807248268
H       -1.3082998550    2.2498750350    0.5851144386
C        1.4234192258    0.1253833007   -1.5146242109
H        1.6328697211    0.0258915434   -2.5667214753
13   
Frame written by nebterpolator, Wed Mar  2 13:38:10 2022
C        1.5431965345    0.6877536688   -0.3275573253
C        0.2583462929   -1.6437218822    0.2728569009
C       -0.9835334307   -1.1563306796    0.5413476915
C       -1.4830054447    0.1423039746    0.3263624528
C       -0.7115820649    1.3420097110    0.3178457408
N        0.6266263384    1.4902899209    0.3022975221
H        2.4797148217    0.5403017288    0.2269656726
H        0.7220340607   -2.5910586022    0.5478560550
H       -1.6971702056   -1.8491247071    1.0132224580
H       -2.5727358439    0.2805718918    0.4348088984
H       -1.2753551443    2.2431977925    0.5930125477
C        1.4402759230    0.2410618004   -1.5957601220
H        1.6531881630    0.2727453824   -2.6532584924
13   
Frame written by nebterpolator, Wed Mar  2 13:38:10 2022
C        1.5552904704    0.6204298578   -0.3353228046
C        0.2249384892   -1.6825123219    0.3001466714
C       -1.0129354684   -1.1704775699    0.5417153839
C       -1.4948544849    0.1341774365    0.3013359591
C       -0.6959476505    1.3169382092    0.3153393653
N        0.6488143883    1.4136246238    0.3360681993
H        2.4635560940    0.3578296751    0.2252383223
H        0.6999420590   -2.6092073331    0.6286815482
H       -1.7338978988   -1.8353277538    1.0437781610
H       -2.5835826130    0.2893128290    0.3949183399
H       -1.2365349122    2.2292468898    0.5996986752
C        1.4681943066    0.3803937021   -1.6569717773
H        1.6970172202    0.5555717555   -2.6946260437
13   
Frame written by nebterpolator, Wed Mar  2 13:38:10 2022
C        1.5743610983    0.5697491793   -0.3525484643
C        0.1749705204   -1.7455666634    0.3042439593
C       -1.0431880743   -1.1929626244    0.5425514487
C       -1.4998318435    0.1251345998    0.2822713184
C       -0.6756021590    1.2875446756    0.3141033833
N        0.6744676019    1.3423400631    0.3579877134
H        2.4401785428    0.1767169392    0.1970441354
H        0.6596959883   -2.6445559849    0.6853464174
H       -1.7719328600   -1.8228343271    1.0728027742
H       -2.5859391104    0.3008282769    0.3671280532
H       -1.1934722164    2.2115327372    0.6043566594
C        1.4968161698    0.5358973765   -1.6915815132
H        1.7494763422    0.8561757521   -2.6837058853
13   
Frame written by nebterpolator, Wed Mar  2 13:38:10 2022
C        1.5844090620    0.4975306395   -0.3743929246
C        0.1414481096   -1.7881952935    0.3065812799
C       -1.0683100213   -1.2110095393    0.5335836140
C       -1.5011339120    0.1208087392    0.2801595431
C       -0.6543613269    1.2580297345    0.3154041034
N        0.6990610052    1.2728171926    0.3663829015
H        2.4042320571   -0.0191023955    0.1410154990
H        0.6192395089   -2.6876155067    0.7038929774
H       -1.8065844522   -1.8219706496    1.0757444309
H       -2.5834600821    0.3157084209    0.3681245786
H       -1.1448904705    2.1992282530    0.5975649701
C        1.5117666231    0.6965559208   -1.6960013645
H        1.7985838992    1.1672144841   -2.6180596086
13   
Frame written by nebterpolator, Wed Mar  2 13:38:10 2022
C        1.6017445384    0.4344676800   -0.4024356780
C        0.1058113818   -1.8370781177    0.2940767515
C       -1.0885243869   -1.2325681697    0.5235393656
C       -1.4915826773    0.1158185002    0.2945117728
C       -0.6286900952    1.2264764377    0.3183588788
N        0.7279151044    1.2178403515    0.3630361360
H        2.3591207814   -0.2085462634    0.0560200766
H        0.5701521391   -2.7484625769    0.6839947027
H       -1.8403375133   -1.8318071243    1.0591530084
H       -2.5689704031    0.3306352371    0.3924951053
H       -1.0943429452    2.1878628273    0.5726925232
C        1.5172401967    0.8681872493   -1.6623709202
H        1.8304638792    1.4771739689   -2.4930717226
13   
Frame written by nebterpolator, Wed Mar  2 13:38:10 2022
C        1.6351783286    0.3939331352   -0.4363404145
C        0.0637443707   -1.8972898201    0.2712785157
C       -1.1044759486   -1.2600822071    0.5159407286
C       -1.4691686015    0.1063357727    0.3224956589
C       -0.5980354039    1.1930319108    0.3224462682
N        0.7624476058    1.1817449322    0.3540158330
H        2.3134107477   -0.3700526205   -0.0578312310
H        0.5128585463   -2.8235916171    0.6364615751
H       -1.8765317969   -1.8507005950    1.0222085312
H       -2.5407267083    0.3418434768    0.4318614972
H       -1.0466625737    2.1736246262    0.5309956082
C        1.5166004029    1.0443274181   -1.5898682740
H        1.8313610308    1.7668755879   -2.3236642965
13   
Frame written by nebterpolator, Wed Mar  2 13:38:10 2022
C        1.6581615097    0.3306876625   -0.4873468092
C        0.0632869588   -1.9054846888    0.2917168166
C       -1.1117085130   -1.2756111119    0.4955950675
C       -1.4414462023    0.0977594207    0.3745272736
C       -0.5675671088    1.1632531836    0.3377354815
N        0.7966094022    1.1502832964    0.3419039546
H        2.2707802369   -0.5118618873   -0.2022640109
H        0.4818934523   -2.8790605207    0.5837461655
H       -1.9205888077   -1.8888231785    0.9083034030
H       -2.5077623005    0.3481723053    0.4937489394
H       -1.0001383449    2.1635508062    0.4826025751
C        1.4942342401    1.1933182289   -1.4872120045
H        1.7842454772    2.0138164835   -2.1330568523
13   
Frame written by nebterpolator, Wed Mar  2 13:38:10 2022
C        1.6753256419    0.2948993226   -0.5678855439
C        0.0644838986   -1.9075790595    0.3660262924
C       -1.1210676109   -1.2880425306    0.4827110514
C       -1.4203267753    0.0845928614    0.4061897036
C       -0.5349668206    1.1336779830    0.3726676720
N        0.8381168891    1.1025165478    0.3500130737
H        2.2175049339   -0.6161808992   -0.4104831998
H        0.4452905888   -2.9223157968    0.5570764458
H       -1.9714866896   -1.9183412056    0.7555232251
H       -2.4846256877    0.3499791708    0.5073325363
H       -0.9485301671    2.1464993933    0.4977687354
C        1.4838871535    1.3247951364   -1.3807488755
H        1.7563946454    2.2154990764   -1.9361911165
13   
Frame written by nebterpolator, Wed Mar  2 13:38:10 2022
C        1.6661673684    0.2695472611   -0.6618328449
C        0.0571034667   -1.9161715696    0.4272983081
C       -1.1328173060   -1.2949026203    0.4690113932
C       -1.4057065140    0.0773568973    0.4249196167
C       -0.5012335257    1.1077916817    0.4184513582
N        0.8780513698    1.0401589862    0.3722807953
H        2.1203290227   -0.6971658586   -0.6605222101
H        0.4034963544   -2.9587611127    0.5209484530
H       -2.0144992145   -1.9315878831    0.6022142982
H       -2.4682885113    0.3599086175    0.5029557800
H       -0.8888412254    2.1315754286    0.5492585283
C        1.4986912427    1.4391547355   -1.2500648024
H        1.7875474721    2.3730954363   -1.7149186735
13   
Frame written by nebterpolator, Wed Mar  2 13:38:10 2022
C        1.6363546488    0.2577298410   -0.7572915839
C        0.0344523467   -1.9413666768    0.4316856665
C       -1.1504101157   -1.3009617276    0.4405866774
C       -1.3937433717    0.0781065856    0.4386450754
C       -0.4655698305    1.0837746522    0.4610276904
N        0.9143204090    0.9660826704    0.3999005917
H        1.9723101142   -0.7416640994   -0.9358452793
H        0.3532359656   -2.9970271065    0.4587151776
H       -2.0529756353   -1.9280945940    0.4746864011
H       -2.4513249980    0.3823713234    0.5113107752
H       -0.8200801941    2.1180201166    0.6110425774
C        1.5525154658    1.5308226896   -1.0798349493
H        1.8709151952    2.4922063254   -1.4546288202
13   
Frame written by nebterpolator, Wed Mar  2 13:38:10 2022
C        1.5898936375    0.2694175571   -0.8462607936
C        0.0004420815   -1.9793497935    0.3837541472
C       -1.1689991948   -1.3095823730    0.3996573473
C       -1.3812259568    0.0874403726    0.4573016566
C       -0.4307727873    1.0649427844    0.4880663113
N        0.9464948037    0.8890720738    0.4174970184
H        1.7865901796   -0.7212301245   -1.2062173766
H        0.2870949008   -3.0405885417    0.3558671349
H       -2.0890712874   -1.9145754757    0.3763677485
H       -2.4286088903    0.4128928865    0.5528240834
H       -0.7468967046    2.1070918573    0.6628825179
C        1.6408827910    1.5786552084   -0.8827446524
H        1.9941764271    2.5558135684   -1.1589951430
13   
Frame written by nebterpolator, Wed Mar  2 13:38:10 2022
C        1.5336459567    0.3216897092   -0.9094403748
C       -0.0491294848   -2.0293657852    0.2818656740
C       -1.1767736480   -1.3349723737    0.3493905167
C       -1.3609226921    0.1072737658    0.4979806226
C       -0.4070581013    1.0618019368    0.4871228615
N        0.9845908033    0.8367175807    0.4055343678
H        1.6026508419   -0.6265047528   -1.4128822237
H        0.1965296989   -3.0826993469    0.2159390351
H       -2.1133099855   -1.9084212119    0.3079462464
H       -2.3843576097    0.4380348107    0.6558489079
H       -0.6874459602    2.1011609889    0.6609662928
C        1.7300491455    1.5653256729   -0.6826268898
H        2.1315310352    2.5499590055   -0.8576450367
