13   
Frame written by nebterpolator, Thu Mar  3 08:58:56 2022
C        1.5751877236    0.4456964295   -0.0859246270
C        0.8224775221   -0.8153030354    0.1174561384
C       -0.5187162062   -0.9686041869   -0.5830774992
C       -1.1193980815    0.3160409781   -0.0361673903
C       -0.3701428071    1.5789271588   -0.2388473708
N        0.9609130039    1.6141495743   -0.2598457188
H        2.6634259738    0.4386562133   -0.0979529891
H        1.4063163589   -1.7246875642    0.2497027670
H       -0.9207244973   -1.7424615602   -1.2221101752
H       -2.2063341362    0.3789713473   -0.0331540677
H       -0.9040697882    2.5169144806   -0.3782928638
C       -0.5024268939   -0.7468623541    0.8584352223
H       -0.8865081718   -1.2914374808    1.7097785743
13   
Frame written by nebterpolator, Thu Mar  3 08:58:56 2022
C        1.5716125055    0.4250545941   -0.0911988395
C        0.8379333314   -0.8354360640    0.0677600558
C       -0.5070804234   -0.9893572257   -0.5747024643
C       -1.1354365208    0.3174549464   -0.0418923317
C       -0.3826619861    1.5744396788   -0.2396646861
N        0.9515485157    1.6022077447   -0.2395095722
H        2.6636325141    0.4298445788   -0.0521766101
H        1.4327638818   -1.7496375651    0.2064711485
H       -0.9379506050   -1.7477506721   -1.2256662736
H       -2.2292991632    0.3488524192   -0.0767780702
H       -0.9083986521    2.5289680720   -0.3487659059
C       -0.4885379599   -0.6643485064    0.8858312457
H       -0.8681254379   -1.2402920008    1.7302923037
13   
Frame written by nebterpolator, Thu Mar  3 08:58:56 2022
C        1.5683925300    0.4024339157   -0.0944077133
C        0.8539339838   -0.8573955607    0.0180895126
C       -0.4952833942   -1.0136634079   -0.5657120741
C       -1.1517710720    0.3188838493   -0.0455728329
C       -0.3966734074    1.5709998696   -0.2410514529
N        0.9413354514    1.5906526458   -0.2209116972
H        2.6606926202    0.4195469945   -0.0052199811
H        1.4582097801   -1.7716751084    0.1628403821
H       -0.9538416229   -1.7472170485   -1.2334971512
H       -2.2486273640    0.3168518126   -0.1148996410
H       -0.9121636797    2.5387792408   -0.3234227143
C       -0.4744863958   -0.5799498674    0.9163455226
H       -0.8497174295   -1.1882473355    1.7474198406
13   
Frame written by nebterpolator, Thu Mar  3 08:58:56 2022
C        1.5638753076    0.3768441489   -0.0937954963
C        0.8700530352   -0.8802133004   -0.0303714197
C       -0.4836269981   -1.0427811529   -0.5555819672
C       -1.1674119081    0.3199699051   -0.0457617584
C       -0.4117871670    1.5684564150   -0.2438441558
N        0.9292435558    1.5792351642   -0.2050178208
H        2.6528894384    0.4063587409    0.0427184310
H        1.4832249858   -1.7900737231    0.1194630299
H       -0.9668963209   -1.7365759817   -1.2502925097
H       -2.2631646945    0.2824060190   -0.1430053114
H       -0.9151771352    2.5458931265   -0.3060264017
C       -0.4600510666   -0.4941069930    0.9502644728
H       -0.8311710323   -1.1354123683    1.7612509074
13   
Frame written by nebterpolator, Thu Mar  3 08:58:56 2022
C        1.5567840305    0.3512036556   -0.0886508351
C        0.8837521560   -0.9039338879   -0.0757652602
C       -0.4736585462   -1.0773025686   -0.5446070723
C       -1.1808494897    0.3199007738   -0.0417002911
C       -0.4262142103    1.5656885451   -0.2493384299
N        0.9159070381    1.5675007284   -0.1916641940
H        2.6403360025    0.3920616824    0.0909801996
H        1.5070533025   -1.8066626921    0.0778864685
H       -0.9761049934   -1.7135512866   -1.2801509186
H       -2.2734608193    0.2459779761   -0.1575975810
H       -0.9170920919    2.5507751843   -0.2994989329
C       -0.4448790967   -0.4093026102    0.9858287614
H       -0.8115732822   -1.0823555003    1.7742780858
13   
Frame written by nebterpolator, Thu Mar  3 08:58:56 2022
C        1.5477276212    0.3301346188   -0.0788669038
C        0.8930795529   -0.9304158621   -0.1163439548
C       -0.4691039057   -1.1163162307   -0.5363809486
C       -1.1914836781    0.3182038478   -0.0340355276
C       -0.4384604989    1.5620568692   -0.2587932847
N        0.9032645144    1.5554117467   -0.1803420282
H        2.6236537961    0.3806165591    0.1406510646
H        1.5276202473   -1.8234695459    0.0396154239
H       -0.9824944516   -1.6801778066   -1.3224495935
H       -2.2801367625    0.2087771291   -0.1567011384
H       -0.9170554701    2.5538404013   -0.3047953168
C       -0.4280109336   -0.3285121945    1.0207419055
H       -0.7886000313   -1.0301495324    1.7877003024
13   
Frame written by nebterpolator, Thu Mar  3 08:58:56 2022
C        1.5368481833    0.3137579635   -0.0631820932
C        0.9017837490   -0.9584204007   -0.1517268377
C       -0.4753940314   -1.1537189423   -0.5387092483
C       -1.1991908743    0.3155489822   -0.0252906319
C       -0.4479340125    1.5579472542   -0.2728892465
N        0.8911866697    1.5430736134   -0.1710083232
H        2.6024540474    0.3728359017    0.1966979184
H        1.5464739544   -1.8400052074    0.0049217259
H       -0.9919218583   -1.6450718596   -1.3700755455
H       -2.2836629595    0.1729055502   -0.1405619832
H       -0.9144851008    2.5559823270   -0.3210163622
C       -0.4073606171   -0.2536670431    1.0524916652
H       -0.7587971500   -0.9811681391    1.8003489622
13   
Frame written by nebterpolator, Thu Mar  3 08:58:56 2022
C        1.5250593164    0.3090887242   -0.0416777995
C        0.9004909528   -0.9910348915   -0.1860060000
C       -0.4865900026   -1.1828590781   -0.5544640912
C       -1.2017197656    0.3129759041   -0.0169305270
C       -0.4543355049    1.5546518772   -0.2908483221
N        0.8833069855    1.5333173446   -0.1598741886
H        2.5766672799    0.3715206284    0.2607314810
H        1.5538071030   -1.8609762313   -0.0300598263
H       -1.0043521042   -1.6211200794   -1.4124034124
H       -2.2820521551    0.1390476839   -0.1123310043
H       -0.9105090552    2.5575415246   -0.3469896751
C       -0.3807896805   -0.1858089800    1.0792261068
H       -0.7189833694   -0.9363444266    1.8116272586
13   
Frame written by nebterpolator, Thu Mar  3 08:58:56 2022
C        1.5078557642    0.3131547088   -0.0172061512
C        0.8739324535   -1.0227347255   -0.2215945714
C       -0.4836846400   -1.1976628523   -0.5768222071
C       -1.1959162346    0.3116228637   -0.0082128332
C       -0.4583048929    1.5547289213   -0.3095121632
N        0.8795613377    1.5295795136   -0.1460960129
H        2.5457062494    0.3683326179    0.3260422761
H        1.5373893793   -1.8854348629   -0.0696192345
H       -1.0066943417   -1.6148264547   -1.4429691334
H       -2.2729816788    0.1064730563   -0.0777122229
H       -0.9081669661    2.5597630109   -0.3785329064
C       -0.3482210450   -0.1267347849    1.0996412405
H       -0.6704753852   -0.8962610124    1.8225939197
13   
Frame written by nebterpolator, Thu Mar  3 08:58:56 2022
C        1.4801671252    0.3058136577    0.0104769177
C        0.8438778493   -1.0386023782   -0.2513746587
C       -0.4751109152   -1.1955927522   -0.6061154703
C       -1.1839320480    0.3101044923    0.0005274953
C       -0.4606208974    1.5572028319   -0.3291871429
N        0.8709470352    1.5279920357   -0.1390131766
H        2.5064602112    0.3515310368    0.3934586686
H        1.5165765082   -1.8995059820   -0.1063999305
H       -1.0057058796   -1.6142726293   -1.4696967999
H       -2.2583659332    0.0770663709   -0.0371139319
H       -0.9065905958    2.5625429533   -0.4139013304
C       -0.3109790487   -0.0793250754    1.1155894735
H       -0.6167234113   -0.8649545617    1.8327498862
13   
Frame written by nebterpolator, Thu Mar  3 08:58:56 2022
C        1.4454040598    0.2855612654    0.0415223441
C        0.8300464195   -1.0380160412   -0.2687143910
C       -0.4790726368   -1.1783848890   -0.6448578513
C       -1.1682879465    0.3061575594    0.0085149369
C       -0.4606731379    1.5582158216   -0.3519091462
N        0.8565127676    1.5249039470   -0.1440096050
H        2.4599472822    0.3270987877    0.4639284830
H        1.5063427385   -1.8997355188   -0.1300780443
H       -1.0150084462   -1.6073166503   -1.5002299155
H       -2.2403697544    0.0557750973    0.0104108287
H       -0.9038520825    2.5627353464   -0.4550242066
C       -0.2706345382   -0.0490965252    1.1285643934
H       -0.5603547252   -0.8478982004    1.8418821739
13   
Frame written by nebterpolator, Thu Mar  3 08:58:56 2022
C        1.4100476128    0.2721983565    0.0735436043
C        0.8128806971   -1.0355809126   -0.2777280929
C       -0.4877298005   -1.1507247538   -0.6855077161
C       -1.1478365994    0.3003780181    0.0170647148
C       -0.4584114492    1.5558644616   -0.3765602658
N        0.8457019799    1.5232079803   -0.1546501525
H        2.4122033925    0.3085874984    0.5300115139
H        1.4888062006   -1.8997428727   -0.1439385945
H       -1.0251454317   -1.5953267731   -1.5313452413
H       -2.2186547882    0.0453856069    0.0609098681
H       -0.9023250488    2.5570401907   -0.5026150399
C       -0.2277518997   -0.0374622812    1.1384215438
H       -0.5017848655   -0.8438245192    1.8523938584
13   
Frame written by nebterpolator, Thu Mar  3 08:58:56 2022
C        1.3769310541    0.2685621944    0.1063450715
C        0.7904002539   -1.0351033093   -0.2797533776
C       -0.4995788103   -1.1168622575   -0.7234068723
C       -1.1248215483    0.2933552526    0.0264279673
C       -0.4554407564    1.5490058918   -0.4016822404
N        0.8408433884    1.5223580407   -0.1691261800
H        2.3671975634    0.2982577232    0.5888778524
H        1.4628090886   -1.9027000034   -0.1503841920
H       -1.0327148209   -1.5761164164   -1.5633621881
H       -2.1956705209    0.0471859476    0.1115822721
H       -0.9038939918    2.5438352787   -0.5553581371
C       -0.1838786695   -0.0429794133    1.1452330113
H       -0.4421822304   -0.8487989290    1.8646070128
13   
Frame written by nebterpolator, Thu Mar  3 08:58:56 2022
C        1.3453064329    0.2678225454    0.1394165142
C        0.7661301713   -1.0337142351   -0.2738758789
C       -0.5126506349   -1.0793050929   -0.7541602201
C       -1.1022513719    0.2853416315    0.0364363333
C       -0.4537996799    1.5377072891   -0.4248818170
N        0.8400719857    1.5207764018   -0.1889986631
H        2.3270203426    0.2903900894    0.6382341500
H        1.4334204420   -1.9060679635   -0.1507497020
H       -1.0335640633   -1.5451229167   -1.5985147021
H       -2.1744086471    0.0607579726    0.1601538436
H       -0.9104866618    2.5227843037   -0.6099767456
C       -0.1406415845   -0.0628271490    1.1470473456
H       -0.3841467312   -0.8585428764    1.8798695423
13   
Frame written by nebterpolator, Thu Mar  3 08:58:56 2022
C        1.3158438486    0.2676109655    0.1727421873
C        0.7422097656   -1.0330503118   -0.2618183693
C       -0.5254108858   -1.0424792853   -0.7771156822
C       -1.0825637740    0.2758823489    0.0471469282
C       -0.4535187545    1.5227891655   -0.4437858463
N        0.8405955879    1.5181060266   -0.2130294001
H        2.2932282794    0.2827677390    0.6785839080
H        1.4045707016   -1.9103639763   -0.1482539850
H       -1.0267179961   -1.5012245366   -1.6385134612
H       -2.1568431373    0.0832046574    0.2059326289
H       -0.9222838484    2.4941312179   -0.6644100404
C       -0.0996297192   -0.0920121549    1.1421650941
H       -0.3294800679   -0.8653618559    1.9003560380
13   
Frame written by nebterpolator, Thu Mar  3 08:58:56 2022
C        1.2899197393    0.2677770711    0.2061340118
C        0.7196522955   -1.0360961086   -0.2459564633
C       -0.5367177756   -1.0107427986   -0.7943626660
C       -1.0678046867    0.2639353541    0.0582651489
C       -0.4545971056    1.5058840126   -0.4558666626
N        0.8414067596    1.5141710324   -0.2386079470
H        2.2669865779    0.2745630484    0.7111232411
H        1.3787731837   -1.9171593798   -0.1457892809
H       -1.0128139290   -1.4451603571   -1.6843594487
H       -2.1441085320    0.1097602332    0.2484205854
H       -0.9393462753    2.4586758355   -0.7164230623
C       -0.0628088912   -0.1263721957    1.1294141206
H       -0.2785413607   -0.8592357476    1.9280084232
13   
Frame written by nebterpolator, Thu Mar  3 08:58:56 2022
C        1.2684425772    0.2689705755    0.2380862798
C        0.6993337798   -1.0448993090   -0.2283549749
C       -0.5481022110   -0.9887621174   -0.8079681586
C       -1.0595321411    0.2485839481    0.0689430551
C       -0.4561488432    1.4897761121   -0.4600584706
N        0.8424676081    1.5088240138   -0.2623478502
H        2.2483671085    0.2663491067    0.7365641765
H        1.3583137910   -1.9268458894   -0.1445578106
H       -0.9932891204   -1.3783238984   -1.7358290946
H       -2.1365137312    0.1343611082    0.2868217471
H       -0.9593660989    2.4191992185   -0.7642209548
C       -0.0329143846   -0.1630577745    1.1102419891
H       -0.2310583342   -0.8341750944    1.9626800667
13   
Frame written by nebterpolator, Thu Mar  3 08:58:56 2022
C        1.2507571363    0.2714252964    0.2673991347
C        0.6806235098   -1.0582601636   -0.2092234391
C       -0.5641242763   -0.9758625307   -0.8189982045
C       -1.0582771941    0.2310423153    0.0787050630
C       -0.4569177921    1.4767384456   -0.4581746533
N        0.8437602202    1.5024144934   -0.2818755090
H        2.2361504785    0.2587271588    0.7548328596
H        1.3431117741   -1.9377970068   -0.1448780808
H       -0.9670122141   -1.3043668723   -1.7901575583
H       -2.1335325632    0.1546912051    0.3213214905
H       -0.9782069157    2.3785598121   -0.8096752683
C       -0.0102787727   -0.2014203416    1.0907115282
H       -0.1860533906   -0.7958918117    2.0000126372
13   
Frame written by nebterpolator, Thu Mar  3 08:58:56 2022
C        1.2347232361    0.2749923471    0.2977099781
C        0.6613791912   -1.0725207793   -0.1883993561
C       -0.5848303962   -0.9610705980   -0.8306591028
C       -1.0622415699    0.2137920531    0.0870505133
C       -0.4567467902    1.4676659344   -0.4513615184
N        0.8448529325    1.4965308927   -0.2969050253
H        2.2276731705    0.2502535825    0.7684895398
H        1.3299152963   -1.9476128584   -0.1499145717
H       -0.9362873467   -1.2322722877   -1.8406515992
H       -2.1331910509    0.1739202448    0.3528200594
H       -0.9939319419    2.3350199695   -0.8586214800
C        0.0093014950   -0.2444132228    1.0744578213
H       -0.1406162259   -0.7542852777    2.0359847413
13   
Frame written by nebterpolator, Thu Mar  3 08:58:56 2022
C        1.2190246845    0.2807853186    0.3358471743
C        0.6436436492   -1.0865562739   -0.1681346588
C       -0.6039379048   -0.9357068240   -0.8479948979
C       -1.0695199499    0.1967246300    0.0935478427
C       -0.4551287770    1.4632706383   -0.4391657446
N        0.8428986090    1.4933075128   -0.3066671006
H        2.2190554401    0.2415435775    0.7814354559
H        1.3191795600   -1.9524601749   -0.1656053749
H       -0.9146996306   -1.1689677972   -1.8782539493
H       -2.1324647179    0.1933990767    0.3799210465
H       -1.0018509098    2.2835705107   -0.9162823857
C        0.0277887107   -0.2960622236    1.0633590582
H       -0.0939887636   -0.7128479711    2.0679935343
13   
Frame written by nebterpolator, Thu Mar  3 08:58:56 2022
C        1.2023640827    0.2879928461    0.3827052022
C        0.6317355245   -1.1045674653   -0.1506886520
C       -0.6176198843   -0.9072132295   -0.8726001464
C       -1.0788684607    0.1774554208    0.0985442753
C       -0.4490304279    1.4618269149   -0.4273401279
N        0.8286478704    1.4942236175   -0.3122467265
H        2.2050873932    0.2369218955    0.7946754324
H        1.3122602734   -1.9493503009   -0.1903344472
H       -0.9096619327   -1.1112908211   -1.9000569403
H       -2.1279224688    0.2118404987    0.4006459437
H       -0.9938951028    2.2279686882   -0.9767549243
C        0.0451131463   -0.3542314655    1.0595977173
H       -0.0482100134   -0.6715765993    2.0938533938
