13   
Minimum RMSD between the two molecules is 0.021338 Angstrom
C        1.7735676198    0.1350505132    0.0878038119
C        1.0421577649   -0.8386349613   -0.6136452867
C       -0.3618803047   -0.3521262617   -0.7605280900
C       -1.3468850307   -0.7167652232    0.3648938411
C       -0.2674630749    1.0472879030   -0.0317410982
N        1.0985956682    1.2244069860    0.4464801005
H        2.8210631307    0.0390106201    0.3661366373
H        1.4276701454   -1.7932011312   -0.9537925776
H       -0.7610042541   -0.3949112979   -1.7819458922
H       -1.8996588884   -1.6310841757    0.5624265836
H       -0.6132879394    1.9347590990   -0.5743587520
C       -1.2483240624    0.4648441727    0.9884336031
H       -1.6645507746    0.8813637573    1.8998371188
13   

C        1.0240092259    0.0725823524    0.3306535939
C        1.1105825343   -0.9499821344   -0.8022322228
C       -0.1066327924   -1.4591253839   -0.5653014689
C       -1.2709954717    0.6672275261    0.3523516690
C       -0.4395531813    1.7256891200   -0.0523009657
N        0.8635645568    1.4593835900   -0.0941058510
H        1.7846856972   -0.0079828042    1.1169014345
H        1.8859481539   -1.1436841105   -1.5359314600
H       -0.7008113262   -2.2399310653   -1.0315860704
H       -2.3519689783    0.7076926365    0.4299123222
H       -0.7940063427    2.7108602122   -0.3480344592
C       -0.4106060736   -0.5228673691    0.6193511504
H       -0.5942160018   -1.0198625698    1.5803223281
