13   
Minimum RMSD between the two molecules is 0.001075 Angstrom
C        1.1589794086    0.1304803584    0.4226177283
C        0.9553820095   -0.9980227466   -0.5804675674
C       -0.4620418026   -1.1026358935   -0.2571907161
C       -1.1011036645    0.3530283047    0.0160240134
C       -0.3133957348    1.4875886170   -0.5301053754
N        0.9466080268    1.4197347000   -0.2859754158
H        2.0590070336    0.1416224907    1.0376818322
H        1.5509601667   -1.3202361628   -1.4286876436
H       -1.1554880756   -1.9102025371   -0.4648202392
H       -2.1819595149    0.3701997332    0.1120341634
H       -0.7368100768    2.2969437411   -1.1219874517
C       -0.2333638937   -0.3043977920    1.0290870642
H       -0.4867738820   -0.5641028131    2.0517896073
13   

C        1.5367035469    0.4791042162    0.0345287975
C        0.8140381946   -0.8163021295    0.1000123699
C       -0.3751004130   -0.6734573436   -0.7819060156
C       -1.1756555603    0.6431217338    0.6705098526
C       -0.5199687796    0.8970699379   -0.6818179061
N        0.8376280813    1.4492624030   -0.4369374653
H        2.5558295383    0.6283947310    0.3864169491
H        1.3121116421   -1.7705814105    0.2387106038
H       -0.7011501813   -1.3441471437   -1.5702530478
H       -1.5475831194    1.3263316174    1.4269681307
H       -1.0629960928    1.4598544944   -1.4411547909
C       -0.6744695448   -0.7251529260    0.7177594634
H       -0.9993873119   -1.5534981804    1.3371630587
