13   
Minimum RMSD between the two molecules is 0.001235 Angstrom
C        1.1747872081    0.2344068355    0.4244369834
C        0.7521739279   -1.0068099792   -0.3618252714
C       -0.5468061641   -0.8764865343   -0.8795568184
C       -1.0717392343    0.1935578094    0.0759293488
C       -0.4190889408    1.4966770038   -0.3907692571
N        0.8554706751    1.5099535251   -0.2295168087
H        2.1523525685    0.1857403297    0.8952794914
H        1.4455132570   -1.8284307438   -0.5186678062
H       -1.0580241520   -1.4476689668   -1.6417583541
H       -2.1381654630    0.2065945685    0.2986079956
H       -0.9411984937    2.2926905361   -0.9173917298
C       -0.0385017894   -0.2370669849    1.1441023404
H       -0.1667733999   -0.7231573990    2.1011298866
13   

C        1.5434894047    0.4204451106    0.0967287231
C        0.6889662494   -0.8467615551    0.0243765537
C       -0.3342394901   -0.3990997861   -1.0462661491
C       -1.1896208758    0.2610908095    0.4760469537
C       -0.4382722688    1.0212043574   -0.6173776776
N        0.9005097968    1.4837777842   -0.2299093014
H        2.5551760957    0.4590517383    0.4948497321
H        1.2003466283   -1.8056499436   -0.0532777956
H       -0.8141914182   -0.9494588845   -1.8434641912
H       -2.2182821138    0.5104805627    0.7214602324
H       -1.0282866596    1.7312621779   -1.1893765385
C       -0.3643208909   -0.6761858539    1.1181706324
H       -0.5012744574   -1.2101565174    2.0480388261
