13   
Minimum RMSD between the two molecules is 0.008129 Angstrom
C        1.1313057399    0.1421300425    0.4813772685
C        0.8226872974   -0.9981175663   -0.5023523275
C       -0.5007680845   -0.9567041943   -0.7421187399
C       -1.0673532594    0.2040250099    0.1023678996
C       -0.3777508977    1.4769089354   -0.4259374702
N        0.8848369478    1.4624368921   -0.2296839344
H        2.1047766271    0.1243014400    0.9675931947
H        1.5571892978   -1.6761527830   -0.9209851724
H       -1.0827382583   -1.5775976645   -1.4135531402
H       -2.1477035724    0.2357297152    0.2398643643
H       -0.8835005457    2.2975228476   -0.9303717150
C       -0.1409036481    0.0160663831    1.3091726063
H       -0.3000776440   -0.7505490577    2.0646271661
13   

C        1.5183974502    0.4275360942    0.1269572956
C        0.6761222229   -0.8574267207   -0.0006678239
C       -0.0968953673   -0.4134680454   -1.2467687732
C       -1.1886087219    0.3852987495    0.6008637509
C       -0.4858205649    0.9338516281   -0.6521483684
N        0.8732399995    1.4695949904   -0.2334830487
H        2.5389404417    0.4712280792    0.5013466028
H        1.2059200255   -1.8092099767    0.0067205940
H       -0.7892090978   -1.0659957103   -1.7755038286
H       -2.0630678592    0.8245751913    1.0672125934
H       -1.0365269663    1.6563678299   -1.2506686502
C       -0.4886697436   -0.6928163832    0.9982696487
H       -0.6638218189   -1.3295357264    1.8578700076
