13   
Minimum RMSD between the two molecules is 0.017132 Angstrom
C        1.5779469684    0.4187592301   -0.1637269914
C        0.8150283981   -0.8257173397    0.0989648667
C       -0.5607284438   -0.9747999929   -0.5291910636
C       -1.1156385907    0.3342952092    0.0132378223
C       -0.3603678040    1.5755786040   -0.2795527659
N        0.9707663675    1.5897774397   -0.3545177004
H        2.6647564820    0.3997771833   -0.1973506900
H        1.3917362961   -1.7400176595    0.2254794554
H       -1.0068983984   -1.7610263481   -1.1204013096
H       -2.1990878065    0.4174228136    0.0709183894
H       -0.8880146071    2.5101957788   -0.4561617909
C       -0.4691753240   -0.7121072545    0.9065177435
H       -0.8203235374   -1.2321376639    1.7857840344
13   

C        1.5778067268    0.4195722335   -0.1590637016
C        0.8146183661   -0.8273282937    0.0877078999
C       -0.5657567974   -0.9721409786   -0.5296119294
C       -1.1148272376    0.3359814216    0.0220768122
C       -0.3604113781    1.5746699280   -0.2856788815
N        0.9706332065    1.5898071205   -0.3543942258
H        2.6652209498    0.4058567630   -0.1613294485
H        1.3905328598   -1.7434490610    0.2040976592
H       -1.0182157395   -1.7565317455   -1.1190957992
H       -2.1976411627    0.4211267481    0.0897632440
H       -0.8893583511    2.5033939586   -0.4868691774
C       -0.4639372011   -0.7142093983    0.9058493477
H       -0.8086642414   -1.2367486962    1.7865482004
