13   
Minimum RMSD between the two molecules is 0.000927 Angstrom
C        1.1572173664    0.1586280257    0.4045243481
C        0.8974795935   -0.9676427411   -0.5899155269
C       -0.5007369262   -1.0140392325   -0.4942619578
C       -1.0852404314    0.2958680508    0.0491930763
C       -0.3606939806    1.4998442399   -0.5022428219
N        0.9029347424    1.4631818934   -0.2907681708
H        2.1005771980    0.1592987974    0.9473088278
H        1.5842661721   -1.6270212051   -1.1004994819
H       -1.1597081069   -1.8247912805   -0.7934498710
H       -2.1621171587    0.3151065870    0.1974433733
H       -0.8301217001    2.2989435755   -1.0720133491
C       -0.1684645229   -0.1564792474    1.1410278191
H       -0.3753922454   -0.6008974637    2.1036537347
13   

C        1.5569485445    0.4556429926    0.0229071050
C        0.7612030609   -0.8258329445    0.0798992130
C       -0.2916819855   -0.5949474480   -0.9567073392
C       -1.1309496210    0.5855262100    0.6840124263
C       -0.5032029678    0.9109299347   -0.6670857081
N        0.8768483229    1.4468256312   -0.4222050123
H        2.5817378826    0.5655299028    0.3712260331
H        1.2613400366   -1.7876461185    0.1627509386
H       -0.7731106701   -1.2759056957   -1.6433849916
H       -1.9162592184    1.0853208579    1.2323199526
H       -1.0670671882    1.5300549623   -1.3622429407
C       -0.5214299527   -0.6580907354    0.9044097664
H       -0.8343762439   -1.4374075494    1.5941005570
