13   
Minimum RMSD between the two molecules is 0.018263 Angstrom
C        1.1589794086    0.1304803584    0.4226177283
C        0.9553820095   -0.9980227466   -0.5804675674
C       -0.4620418026   -1.1026358935   -0.2571907161
C       -1.1011036645    0.3530283047    0.0160240134
C       -0.3133957348    1.4875886170   -0.5301053754
N        0.9466080268    1.4197347000   -0.2859754158
H        2.0590070336    0.1416224907    1.0376818322
H        1.5509601667   -1.3202361628   -1.4286876436
H       -1.1554880756   -1.9102025371   -0.4648202392
H       -2.1819595149    0.3701997332    0.1120341634
H       -0.7368100768    2.2969437411   -1.1219874517
C       -0.2333638937   -0.3043977920    1.0290870642
H       -0.4867738820   -0.5641028131    2.0517896073
13   

C        1.5300315865    0.4804380894    0.0354353872
C        0.8079965678   -0.8168714207    0.1004138075
C       -0.3792086070   -0.6758124493   -0.7853812368
C       -1.1745236568    0.6444219090    0.6711077781
C       -0.5250059911    0.8933091611   -0.6848201660
N        0.8313050543    1.4489591352   -0.4397702401
H        2.5467156917    0.6336582966    0.3927034016
H        1.3083308207   -1.7694449402    0.2415511920
H       -0.6962878756   -1.3476024471   -1.5764254718
H       -1.4890647996    1.3389988909    1.4445661551
H       -1.0714449944    1.4537978237   -1.4438676856
C       -0.6816185322   -0.7275694259    0.7127027877
H       -1.0072252643   -1.5562826224    1.3317842913
