13   
Minimum RMSD between the two molecules is 0.001132 Angstrom
C        1.2020483640    0.2968718941    0.3973717450
C        0.6518928159   -1.0857946247   -0.1804447208
C       -0.6016286690   -0.8929725633   -0.8934841491
C       -1.0783918419    0.1715732368    0.0909278821
C       -0.4581395169    1.4742866052   -0.4016724722
N        0.8197271425    1.5144425158   -0.2709841290
H        2.2014198242    0.2461062344    0.8153561967
H        1.3416930674   -1.9208643611   -0.2378177434
H       -0.9371846917   -1.1568044435   -1.8916726194
H       -2.1289013505    0.1926387672    0.3862140645
H       -1.0035715481    2.2511441997   -0.9334929961
C        0.0453266776   -0.3687595079    1.0492656845
H       -0.0542902741   -0.7218679533    2.0704332572
13   

C        1.5401180063    0.3962444369    0.1241870401
C        0.6812743715   -0.8581335791    0.0106788690
C       -0.4695399096   -0.3652057008   -0.9405365446
C       -1.2344756810    0.0792092139    0.3295095210
C       -0.4054723246    1.0787606167   -0.6015490660
N        0.9103530856    1.4766205225   -0.1720127765
H        2.5462918540    0.4156756722    0.5376595588
H        1.1935076233   -1.8088197883   -0.1469565093
H       -0.8488814644   -0.8407050356   -1.8391686797
H       -2.2887686801    0.2842594971    0.4802305825
H       -1.0086969848    1.8156725402   -1.1201908957
C       -0.3443956171   -0.7413526722    1.1358853325
H       -0.2713142790   -0.9322257236    2.2022635678
