13   
Minimum RMSD between the two molecules is 0.022565 Angstrom
C        1.6961896235    0.2910913340   -0.2562475246
C        1.1024641072   -0.9098530444   -0.0665970477
C       -0.3442786271   -1.0466614350    0.1650798587
C       -1.1478606630    0.3635609358   -0.0445855575
C       -0.2777981747    1.4737833930   -0.4744290197
N        1.0120695657    1.4853007544   -0.4907189456
H        2.7734389752    0.3636894575   -0.3710690082
H        1.6945118694   -1.8202707958   -0.1091027647
H       -0.8080220960   -1.9768711107   -0.1663343901
H       -2.1439049122    0.3612968415   -0.4906871160
H       -0.7856330212    2.3606255466   -0.8586635118
C       -0.9928474394   -0.3100877597    1.2462344857
H       -1.7783292075   -0.6356041174    1.9171205411
13   

C        1.6938475743    0.2934844249   -0.2448051007
C        1.0983150514   -0.9100158547   -0.0705782916
C       -0.3489085382   -1.0492419845    0.1516358949
C       -1.1483903789    0.3718148653   -0.0334414410
C       -0.2794994411    1.4727912329   -0.4842822649
N        1.0110002098    1.4832998974   -0.4978210422
H        2.7732585391    0.3681827891   -0.3360278763
H        1.6920972515   -1.8195759504   -0.1088605899
H       -0.8170728798   -1.9726610488   -0.1925925972
H       -2.1528425046    0.3762826934   -0.4602194859
H       -0.7857803226    2.3474767677   -0.8976013370
C       -0.9799748083   -0.3184305470    1.2463218474
H       -1.7560497527   -0.6434072853    1.9282722844
