13   
Minimum RMSD between the two molecules is 0.000842 Angstrom
C        1.2020483640    0.2968718941    0.3973717450
C        0.6518928159   -1.0857946247   -0.1804447208
C       -0.6016286690   -0.8929725633   -0.8934841491
C       -1.0783918419    0.1715732368    0.0909278821
C       -0.4581395169    1.4742866052   -0.4016724722
N        0.8197271425    1.5144425158   -0.2709841290
H        2.2014198242    0.2461062344    0.8153561967
H        1.3416930674   -1.9208643611   -0.2378177434
H       -0.9371846917   -1.1568044435   -1.8916726194
H       -2.1289013505    0.1926387672    0.3862140645
H       -1.0035715481    2.2511441997   -0.9334929961
C        0.0453266776   -0.3687595079    1.0492656845
H       -0.0542902741   -0.7218679533    2.0704332572
13   

C        1.5400890904    0.3962397197    0.1241025772
C        0.6811816677   -0.8585896372    0.0105198209
C       -0.4697293524   -0.3649406647   -0.9404703883
C       -1.2338593046    0.0796779786    0.3297387983
C       -0.4055581869    1.0789889578   -0.6017788410
N        0.9106038065    1.4766171425   -0.1726282975
H        2.5460107827    0.4159064541    0.5382644155
H        1.1940459181   -1.8089614549   -0.1468138609
H       -0.8492917446   -0.8405299339   -1.8390106392
H       -2.2884102128    0.2841935102    0.4805115010
H       -1.0091062747    1.8155154275   -1.1204808361
C       -0.3440143707   -0.7407491647    1.1360266887
H       -0.2719618185   -0.9333683350    2.2020190613
