13   
Minimum RMSD between the two molecules is 0.029137 Angstrom
C        1.2020483640    0.2968718941    0.3973717450
C        0.6518928159   -1.0857946247   -0.1804447208
C       -0.6016286690   -0.8929725633   -0.8934841491
C       -1.0783918419    0.1715732368    0.0909278821
C       -0.4581395169    1.4742866052   -0.4016724722
N        0.8197271425    1.5144425158   -0.2709841290
H        2.2014198242    0.2461062344    0.8153561967
H        1.3416930674   -1.9208643611   -0.2378177434
H       -0.9371846917   -1.1568044435   -1.8916726194
H       -2.1289013505    0.1926387672    0.3862140645
H       -1.0035715481    2.2511441997   -0.9334929961
C        0.0453266776   -0.3687595079    1.0492656845
H       -0.0542902741   -0.7218679533    2.0704332572
13   

C        1.5334819862    0.3869758469    0.1333957111
C        0.6764295458   -0.8658798883    0.0007239779
C       -0.4725624777   -0.3674007227   -0.9479271952
C       -1.2377715333    0.0675798503    0.3218170196
C       -0.4077050669    1.0752539694   -0.5996872576
N        0.9057507544    1.4697878758   -0.1582587508
H        2.5308207055    0.4010821627    0.5672910306
H        1.1873509220   -1.8163316497   -0.1635167966
H       -0.8479546258   -0.8319543580   -1.8540488842
H       -2.2919851250    0.2719240353    0.4744290640
H       -1.0095658327    1.8166503121   -1.1134608108
C       -0.3425702344   -0.7460697159    1.1325416449
H       -0.2237190180   -0.8616177178    2.2067012471
