13   
Minimum RMSD between the two molecules is 0.005452 Angstrom
C        1.5946923947    0.3591172785   -0.4408924186
C        1.1285548471   -0.9423504393   -0.5025592229
C       -0.1857827342   -1.4358543184   -0.1788955891
C       -1.2471211881   -0.7048592692    0.2712553316
C       -0.2622270414    1.6374449189    0.3460690644
N        1.0200060253    1.5314231133   -0.0780792536
H        2.6350290854    0.4889117980   -0.7429440390
H        1.8492755458   -1.6831144196   -0.8386175907
H       -0.3357919603   -2.5054768898   -0.3076333120
H       -2.1714435720   -1.2419295732    0.4715289136
H       -0.5251016418    2.6658525330    0.5987115002
C       -1.2792609747    0.7144466683    0.5182814471
H       -2.2208287853    1.1163885995    0.8837751691
13   

C        1.1949589530    1.1869034302   -0.1764688811
C        0.5954127312   -1.2755233229   -0.3841837136
C       -0.7105839614   -1.2744826304    0.0130401729
C       -1.4862176763   -0.1344954861    0.4317658043
C       -1.0873250998    1.1880786574    0.5222955146
N        0.0820459754    1.8217005643    0.2652478811
H        2.0282627797    1.8760997157   -0.3219510092
H        1.0283268779   -2.2320186421   -0.6682692342
H       -1.2298732954   -2.2301339184    0.0186573121
H       -2.5169561308   -0.3323171804    0.7147187123
H       -1.8585413137    1.8777686286    0.8689498159
C        1.4738303197   -0.1362973207   -0.4714337527
H        2.4866598407   -0.3352824952   -0.8123686224
