13   
Minimum RMSD between the two molecules is 0.000876 Angstrom
C        1.2020483640    0.2968718941    0.3973717450
C        0.6518928159   -1.0857946247   -0.1804447208
C       -0.6016286690   -0.8929725633   -0.8934841491
C       -1.0783918419    0.1715732368    0.0909278821
C       -0.4581395169    1.4742866052   -0.4016724722
N        0.8197271425    1.5144425158   -0.2709841290
H        2.2014198242    0.2461062344    0.8153561967
H        1.3416930674   -1.9208643611   -0.2378177434
H       -0.9371846917   -1.1568044435   -1.8916726194
H       -2.1289013505    0.1926387672    0.3862140645
H       -1.0035715481    2.2511441997   -0.9334929961
C        0.0453266776   -0.3687595079    1.0492656845
H       -0.0542902741   -0.7218679533    2.0704332572
13   

C        1.5398853310    0.3965582326    0.1246012040
C        0.6814205422   -0.8582390019    0.0108318977
C       -0.4691221532   -0.3650112538   -0.9405399996
C       -1.2338798040    0.0796269791    0.3295801270
C       -0.4054164611    1.0791198802   -0.6017194821
N        0.9104726184    1.4769039507   -0.1726453291
H        2.5464395977    0.4160397300    0.5371465936
H        1.1939670118   -1.8087004869   -0.1468484211
H       -0.8495131216   -0.8410855559   -1.8383306246
H       -2.2882801215    0.2848033843    0.4804318525
H       -1.0089429108    1.8155838751   -1.1205739411
C       -0.3442891858   -0.7412206170    1.1360336701
H       -0.2727413431   -0.9343791165    2.2020324527
