13   
Minimum RMSD between the two molecules is 0.008303 Angstrom
C        1.5946923947    0.3591172785   -0.4408924186
C        1.1285548471   -0.9423504393   -0.5025592229
C       -0.1857827342   -1.4358543184   -0.1788955891
C       -1.2471211881   -0.7048592692    0.2712553316
C       -0.2622270414    1.6374449189    0.3460690644
N        1.0200060253    1.5314231133   -0.0780792536
H        2.6350290854    0.4889117980   -0.7429440390
H        1.8492755458   -1.6831144196   -0.8386175907
H       -0.3357919603   -2.5054768898   -0.3076333120
H       -2.1714435720   -1.2419295732    0.4715289136
H       -0.5251016418    2.6658525330    0.5987115002
C       -1.2792609747    0.7144466683    0.5182814471
H       -2.2208287853    1.1163885995    0.8837751691
13   

C        1.5955034486    0.3591250082   -0.4389018986
C        1.1280067079   -0.9425293038   -0.5038207151
C       -0.1836686103   -1.4369874851   -0.1707297916
C       -1.2812047462    0.7153327309    0.5111905276
C       -0.2624539460    1.6369005469    0.3438245653
N        1.0235579001    1.5298670010   -0.0701153281
H        2.6346888952    0.4898251601   -0.7450571165
H        1.8469457885   -1.6807851213   -0.8496795204
H       -0.3330500525   -2.5074775315   -0.2924134770
H       -2.2248282339    1.1211971532    0.8667309281
H       -0.5281201859    2.6659792823    0.5907328514
C       -1.2462984414   -0.7061667548    0.2768968299
H       -2.1690785241   -1.2442806860    0.4813421452
