13   
Minimum RMSD between the two molecules is 0.001310 Angstrom
C        1.1313057399    0.1421300425    0.4813772685
C        0.8226872974   -0.9981175663   -0.5023523275
C       -0.5007680845   -0.9567041943   -0.7421187399
C       -1.0673532594    0.2040250099    0.1023678996
C       -0.3777508977    1.4769089354   -0.4259374702
N        0.8848369478    1.4624368921   -0.2296839344
H        2.1047766271    0.1243014400    0.9675931947
H        1.5571892978   -1.6761527830   -0.9209851724
H       -1.0827382583   -1.5775976645   -1.4135531402
H       -2.1477035724    0.2357297152    0.2398643643
H       -0.8835005457    2.2975228476   -0.9303717150
C       -0.1409036481    0.0160663831    1.3091726063
H       -0.3000776440   -0.7505490577    2.0646271661
13   

C        1.5194147151    0.4257792443    0.1266910519
C        0.6753514095   -0.8570796492    0.0005287246
C       -0.0964457402   -0.4122430510   -1.2470779888
C       -1.1913544992    0.3833762897    0.5998942871
C       -0.4855897768    0.9342577164   -0.6507673540
N        0.8738766839    1.4686723934   -0.2314047925
H        2.5419609166    0.4670879266    0.4962282774
H        1.2029891194   -1.8103158039    0.0078466073
H       -0.7871582561   -1.0622535251   -1.7802039284
H       -2.0733297101    0.8147757865    1.0578722239
H       -1.0346665278    1.6592429146   -1.2478989497
C       -0.4883702708   -0.6910688830    1.0011799950
H       -0.6566780636   -1.3202313593    1.8671118462
