13   
Minimum RMSD between the two molecules is 0.001618 Angstrom
C        1.1313057399    0.1421300425    0.4813772685
C        0.8226872974   -0.9981175663   -0.5023523275
C       -0.5007680845   -0.9567041943   -0.7421187399
C       -1.0673532594    0.2040250099    0.1023678996
C       -0.3777508977    1.4769089354   -0.4259374702
N        0.8848369478    1.4624368921   -0.2296839344
H        2.1047766271    0.1243014400    0.9675931947
H        1.5571892978   -1.6761527830   -0.9209851724
H       -1.0827382583   -1.5775976645   -1.4135531402
H       -2.1477035724    0.2357297152    0.2398643643
H       -0.8835005457    2.2975228476   -0.9303717150
C       -0.1409036481    0.0160663831    1.3091726063
H       -0.3000776440   -0.7505490577    2.0646271661
13   

C        1.5198664214    0.4255847814    0.1274638955
C        0.6752786087   -0.8568611805    0.0002515932
C       -0.0957709450   -0.4116908850   -1.2475021240
C       -1.1921580998    0.3824370682    0.5986125184
C       -0.4852556803    0.9349854837   -0.6507957888
N        0.8743277575    1.4687980804   -0.2301388033
H        2.5426941920    0.4660056514    0.4959996455
H        1.2022616503   -1.8105330963    0.0070839057
H       -0.7884883896   -1.0613761220   -1.7780535685
H       -2.0772342190    0.8106896895    1.0540056710
H       -1.0336540702    1.6608937658   -1.2474556533
C       -0.4873860242   -0.6904442257    1.0013596595
H       -0.6544812019   -1.3184890107    1.8691690491
