13   
Minimum RMSD between the two molecules is 0.001661 Angstrom
C        1.1747872081    0.2344068355    0.4244369834
C        0.7521739279   -1.0068099792   -0.3618252714
C       -0.5468061641   -0.8764865343   -0.8795568184
C       -1.0717392343    0.1935578094    0.0759293488
C       -0.4190889408    1.4966770038   -0.3907692571
N        0.8554706751    1.5099535251   -0.2295168087
H        2.1523525685    0.1857403297    0.8952794914
H        1.4455132570   -1.8284307438   -0.5186678062
H       -1.0580241520   -1.4476689668   -1.6417583541
H       -2.1381654630    0.2065945685    0.2986079956
H       -0.9411984937    2.2926905361   -0.9173917298
C       -0.0385017894   -0.2370669849    1.1441023404
H       -0.1667733999   -0.7231573990    2.1011298866
13   

C        1.5437005188    0.4206075532    0.0961023143
C        0.6886668377   -0.8467723126    0.0248342505
C       -0.3350095354   -0.3996238415   -1.0455628597
C       -1.1895458909    0.2616067348    0.4767501076
C       -0.4381930811    1.0210209251   -0.6176918827
N        0.9006267225    1.4838016356   -0.2306412641
H        2.5551273993    0.4593852211    0.4948809093
H        1.2003355495   -1.8054970875   -0.0526883947
H       -0.8133761117   -0.9491182141   -1.8442834214
H       -2.2182254688    0.5106190371    0.7223122695
H       -1.0282714039    1.7311289712   -1.1896273629
C       -0.3637075961   -0.6751917955    1.1188187950
H       -0.5021279399   -1.2119668269    2.0467965391
