13   
Minimum RMSD between the two molecules is 0.004506 Angstrom
C        1.4676687242    0.5452840102   -0.6727566149
C       -0.2250796822   -1.1343038639    0.0537042683
C       -1.4650669209   -1.0693263399    0.6457468959
C       -1.7706319697    0.3120927109    0.8583157717
C       -0.7057250004    1.0424611563    0.3870540444
N        0.2428849616    0.1588279203   -0.1066472551
H        1.6090285550    1.6288999340   -0.6873860143
H        0.3695567280   -1.9747181366   -0.2703478386
H       -2.0866687747   -1.9163412881    0.9008662691
H       -2.6675105475    0.7175185915    1.3051629390
H       -0.5316783418    2.1081201048    0.3556225955
C        2.3971812730   -0.2589237913   -1.1532965085
H        3.3660409954   -0.1595910082   -1.6160385524
13   

C        1.5081986894    0.4997781939   -0.6158081128
C       -0.3144812735   -1.1118623273   -0.0729550392
C       -1.5462577553   -1.0165651985    0.5318442963
C       -1.7440569659    0.3528922193    0.8960605933
C       -0.6247857743    1.0457783898    0.5002469973
N        0.2532018843    0.1506950908   -0.0934366051
H        1.7324869037    1.5646597223   -0.5148854201
H        0.2132895599   -1.9553476655   -0.4912325734
H       -2.2330305927   -1.8352831175    0.6961556864
H       -2.6086710770    0.7752292628    1.3885454960
H       -0.3678575231    2.0915646977    0.5847560820
C        2.3756636018   -0.3169773865   -1.1833792941
H        3.3563003226   -0.2445618813   -1.6259121068
