13   
Minimum RMSD between the two molecules is 0.000000 Angstrom
C        1.1909420969    0.3158280614    0.4358416359
C        0.7239979418   -1.0113468543   -0.2272494047
C       -0.4947228323   -0.8051748399   -1.0238608301
C       -1.0636470897    0.2051529878   -0.0143736678
C       -0.4248352283    1.5303154158   -0.4058552545
N        0.8399893422    1.5707827307   -0.1965287622
H        2.1488000683    0.2704696361    0.9421780956
H        1.4012792655   -1.8574149507   -0.2618611199
H       -1.0685429287   -1.5944152477   -1.4944399934
H       -2.1321329853    0.1953191014    0.1992017111
H       -0.9427831000    2.3284006472   -0.9333011357
C       -0.0094163583   -0.3726546841    0.9925012636
H       -0.1689281921   -0.7752620037    1.9877474619
13   

C        1.1909420969    0.3158280614    0.4358416359
C        0.7239979418   -1.0113468543   -0.2272494047
C       -0.4947228323   -0.8051748399   -1.0238608301
C       -1.0636470897    0.2051529878   -0.0143736678
C       -0.4248352283    1.5303154158   -0.4058552545
N        0.8399893422    1.5707827307   -0.1965287622
H        2.1488000683    0.2704696361    0.9421780956
H        1.4012792655   -1.8574149507   -0.2618611199
H       -1.0685429287   -1.5944152477   -1.4944399934
H       -2.1321329853    0.1953191014    0.1992017111
H       -0.9427831000    2.3284006472   -0.9333011357
C       -0.0094163583   -0.3726546841    0.9925012636
H       -0.1689281921   -0.7752620037    1.9877474619
