13   
Minimum RMSD between the two molecules is 0.002463 Angstrom
C        1.1572173664    0.1586280257    0.4045243481
C        0.8974795935   -0.9676427411   -0.5899155269
C       -0.5007369262   -1.0140392325   -0.4942619578
C       -1.0852404314    0.2958680508    0.0491930763
C       -0.3606939806    1.4998442399   -0.5022428219
N        0.9029347424    1.4631818934   -0.2907681708
H        2.1005771980    0.1592987974    0.9473088278
H        1.5842661721   -1.6270212051   -1.1004994819
H       -1.1597081069   -1.8247912805   -0.7934498710
H       -2.1621171587    0.3151065870    0.1974433733
H       -0.8301217001    2.2989435755   -1.0720133491
C       -0.1684645229   -0.1564792474    1.1410278191
H       -0.3753922454   -0.6008974637    2.1036537347
13   

C        1.5579491799    0.4552948938    0.0219025630
C        0.7607302047   -0.8258840776    0.0808512620
C       -0.2923929023   -0.5952772102   -0.9549696894
C       -1.1297356990    0.5867005699    0.6853810608
C       -0.5024776720    0.9118931123   -0.6663909626
N        0.8779212132    1.4464424240   -0.4233739994
H        2.5830952491    0.5651270205    0.3692223155
H        1.2610127630   -1.7876135597    0.1632127202
H       -0.7718016262   -1.2755171237   -1.6438088928
H       -1.9206103366    1.0820835202    1.2295943643
H       -1.0669147038    1.5311592886   -1.3609686307
C       -0.5212471418   -0.6572195806    0.9054849232
H       -0.8355285281   -1.4371892774    1.5938629658
