13
Frame written by nebterpolator, Thu Mar  3 06:26:57 2022
C      1.3118553965   0.3025645483   0.2420680501
C      0.6068016140  -1.0007437408  -0.1830377253
C     -0.6883432701  -0.4654887350  -0.8439833543
C     -1.0780816294   0.1914248105   0.4506992150
C     -0.5189778790   1.0592796455  -0.6927874810
N      0.8291126319   1.4230372465  -0.4714120611
H      2.3483758206   0.2894064774   0.5607696643
H      1.1233254710  -1.9344691093  -0.3753888304
H     -1.2958121827  -0.9367535784  -1.6085309573
H     -2.0520569287   0.3366788924   0.9044507955
H     -1.1651298397   1.7418607690  -1.2337022453
C      0.2167204484  -0.3451412793   1.1120381956
H      0.3622103476  -0.6616559464   2.1388167342
13
Frame written by nebterpolator, Thu Mar  3 06:26:57 2022
C      1.3260939241   0.3043696291   0.2119457285
C      0.6073855238  -0.9949272550  -0.1823881047
C     -0.6899428541  -0.4586775598  -0.8880263758
C     -1.0824922023   0.1802430305   0.4502749347
C     -0.5223073819   1.0529548841  -0.6958320069
N      0.8506192048   1.4251376483  -0.4761898847
H      2.3386466827   0.2747572656   0.5987532496
H      1.1121220260  -1.9468884292  -0.3455354405
H     -1.3089215302  -0.9509240539  -1.6434874449
H     -2.0629474739   0.3239958282   0.9086021043
H     -1.1806880456   1.7602096036  -1.1960086445
C      0.2055824784  -0.3396296607   1.1139245435
H      0.4068496482  -0.6306209308   2.1439673413
13
Frame written by nebterpolator, Thu Mar  3 06:26:57 2022
C      1.3417119838   0.3056923895   0.1810464914
C      0.6079279153  -0.9895319127  -0.1816412085
C     -0.6915314452  -0.4511705225  -0.9334413623
C     -1.0870068774   0.1688554824   0.4503490772
C     -0.5257300558   1.0472568641  -0.6993330788
N      0.8726590058   1.4280705559  -0.4808121673
H      2.3268076099   0.2603315561   0.6370947827
H      1.1006428033  -1.9585875365  -0.3157541486
H     -1.3220234212  -0.9659112168  -1.6777878448
H     -2.0729752886   0.3112112012   0.9134595383
H     -1.1957638628   1.7779732244  -1.1581878791
C      0.1942226260  -0.3353261147   1.1166900328
H      0.4510590069  -0.5988639706   2.1483177668
13
Frame written by nebterpolator, Thu Mar  3 06:26:57 2022
C      1.3600800332   0.3060138252   0.1485764620
C      0.6084642780  -0.9855968956  -0.1808977672
C     -0.6936201646  -0.4426529630  -0.9824402168
C     -1.0923537383   0.1569645029   0.4517132841
C     -0.5295900468   1.0431268196  -0.7041289164
N      0.8958220397   1.4327874984  -0.4851870303
H      2.3107424921   0.2463923008   0.6760426486
H      1.0886755934  -1.9683961668  -0.2861973661
H     -1.3341980962  -0.9821360796  -1.7094645131
H     -2.0806863960   0.2982693951   0.9197018796
H     -1.2096607225   1.7946716360  -1.1201288837
C      0.1821523739  -0.3339972536   1.1217292628
H      0.4941723542  -0.5654466196   2.1506811565
13
Frame written by nebterpolator, Thu Mar  3 06:26:57 2022
C      1.3808103260   0.3054023618   0.1148247101
C      0.6085936130  -0.9829557814  -0.1801480716
C     -0.6957822371  -0.4322151310  -1.0353556544
C     -1.0980338651   0.1448584860   0.4547054905
C     -0.5335801463   1.0413474105  -0.7105967467
N      0.9202292002   1.4397939621  -0.4887637993
H      2.2897813526   0.2327863540   0.7140031885
H      1.0775434751  -1.9753639599  -0.2580945626
H     -1.3448754293  -1.0010075701  -1.7361458548
H     -2.0853721718   0.2859013744   0.9284447407
H     -1.2220831519   1.8101142269  -1.0836597743
C      0.1687411095  -0.3372213001   1.1294431702
H      0.5340279250  -0.5314404332   2.1513431637
13
Frame written by nebterpolator, Thu Mar  3 06:26:57 2022
C      1.4010108947   0.3049147266   0.0824626099
C      0.6074805636  -0.9809885975  -0.1794781876
C     -0.6969710910  -0.4195446639  -1.0884544250
C     -1.1025942970   0.1338640818   0.4591621481
C     -0.5367765574   1.0424900643  -0.7183472708
N      0.9445618768   1.4487469203  -0.4903753592
H      2.2661769696   0.2200241378   0.7461368521
H      1.0700623101  -1.9786497854  -0.2346858015
H     -1.3531328673  -1.0235204187  -1.7540586416
H     -2.0868001144   0.2760707550   0.9403562029
H     -1.2324433297   1.8238470622  -1.0535906226
C      0.1537573466  -0.3460181734   1.1389910750
H      0.5656682955  -0.5012361090   2.1518814202
13
Frame written by nebterpolator, Thu Mar  3 06:26:57 2022
C      1.4182169233   0.3065900392   0.0521287185
C      0.6036161109  -0.9801138376  -0.1793690211
C     -0.6966702182  -0.4045587127  -1.1409570894
C     -1.1052499695   0.1249905438   0.4655931558
C     -0.5384610701   1.0475166587  -0.7275989799
N      0.9687386326   1.4597153291  -0.4881658964
H      2.2425417049   0.2091715225   0.7680467499
H      1.0693200927  -1.9772382109  -0.2189950725
H     -1.3567891615  -1.0518040737  -1.7573647772
H     -2.0840761189   0.2712229519   0.9568222802
H     -1.2402470821   1.8365518963  -1.0343709662
C      0.1351548759  -0.3631762083   1.1501507394
H      0.5839052800  -0.4788678984   2.1540801589
13
Frame written by nebterpolator, Thu Mar  3 06:26:57 2022
C      1.4306180664   0.3109798914   0.0227264016
C      0.5966003920  -0.9800108549  -0.1797490660
C     -0.6946486877  -0.3870776089  -1.1926434612
C     -1.1057963784   0.1190742881   0.4742807591
C     -0.5384901370   1.0568154400  -0.7382145468
N      0.9923201085   1.4723859809  -0.4808080217
H      2.2216070598   0.2005996772   0.7772579974
H      1.0776587361  -1.9699849273  -0.2122284453
H     -1.3543368257  -1.0877814828  -1.7424112394
H     -2.0769001361   0.2733643098   0.9782162737
H     -1.2453057773   1.8493523386  -1.0280386703
C      0.1109545979  -0.3908453140   1.1623136990
H      0.5857189816  -0.4668717381   2.1592983199
13
Frame written by nebterpolator, Thu Mar  3 06:26:57 2022
C      1.4349597900   0.3173350348  -0.0024152089
C      0.5875980241  -0.9805264490  -0.1801064744
C     -0.6907098022  -0.3702851245  -1.2330659992
C     -1.1039118562   0.1186744097   0.4843483019
C     -0.5368281635   1.0691209395  -0.7477305073
N      1.0091220481   1.4847902473  -0.4683966994
H      2.2112193800   0.1974388798   0.7678877524
H      1.0959578469  -1.9562214583  -0.2170362981
H     -1.3430729545  -1.1267821765  -1.7061278345
H     -2.0660083033   0.2855540999   1.0009010140
H     -1.2459035324   1.8604356201  -1.0382627169
C      0.0824746061  -0.4277109062   1.1722106110
H      0.5651029167  -0.4718231168   2.1677940593
13
Frame written by nebterpolator, Thu Mar  3 06:26:57 2022
C      1.4344602612   0.3220097135  -0.0212326445
C      0.5804440159  -0.9804508598  -0.1795907885
C     -0.6858324172  -0.3574304461  -1.2581125070
C     -1.1011813447   0.1220843101   0.4933730080
C     -0.5349151386   1.0801402361  -0.7540662500
N      1.0165940861   1.4950629738  -0.4565654114
H      2.2109297913   0.1980498486   0.7488943074
H      1.1158639421  -1.9410193929  -0.2262462287
H     -1.3277989416  -1.1588969953  -1.6647805629
H     -2.0556599972   0.3020171607   1.0190515364
H     -1.2439631457   1.8679895656  -1.0549201441
C      0.0563303557  -0.4629675909   1.1779296908
H      0.5347285328  -0.4865885234   2.1762659945
13
Frame written by nebterpolator, Thu Mar  3 06:26:57 2022
C      1.4318597657   0.3255242218  -0.0366459342
C      0.5752968689  -0.9794735469  -0.1781417286
C     -0.6794120913  -0.3478950535  -1.2722048258
C     -1.0981211686   0.1283497767   0.5021430115
C     -0.5330277030   1.0892555140  -0.7576216209
N      1.0168935664   1.5036852045  -0.4456898029
H      2.2189493502   0.2023529101   0.7224468223
H      1.1356286482  -1.9250331420  -0.2372256693
H     -1.3092116382  -1.1850394418  -1.6206277758
H     -2.0462200382   0.3220044066   1.0337405020
H     -1.2402203557   1.8723327141  -1.0746799296
C      0.0307894918  -0.4971570688   1.1802429365
H      0.4967953039  -0.5089064948   2.1842640149
13
Frame written by nebterpolator, Thu Mar  3 06:26:57 2022
C      1.4289297123   0.3284341256  -0.0503792603
C      0.5720253480  -0.9773942988  -0.1758227997
C     -0.6709236426  -0.3409177001  -1.2792657513
C     -1.0949849996   0.1366296000   0.5112016174
C     -0.5312877086   1.0962838918  -0.7589549314
N      1.0123142274   1.5110559492  -0.4357924866
H      2.2329517438   0.2097861920   0.6906681166
H      1.1542377745  -1.9088881042  -0.2482355517
H     -1.2886908845  -1.2064542309  -1.5758182022
H     -2.0377508853   0.3445303196   1.0461257047
H     -1.2353833202   1.8738390608  -1.0953014337
C      0.0049811819  -0.5303713368   1.1800897436
H      0.4535814531  -0.5365334680   2.1914852345
13
Frame written by nebterpolator, Thu Mar  3 06:26:57 2022
C      1.4263978078   0.3308401411  -0.0622022441
C      0.5709985495  -0.9738436526  -0.1727833311
C     -0.6604240127  -0.3365692335  -1.2805679249
C     -1.0921057646   0.1461664278   0.5202704336
C     -0.5298802861   1.1004827079  -0.7581163413
N      1.0043040993   1.5162872311  -0.4273084558
H      2.2509714433   0.2196241648   0.6561857750
H      1.1703571893  -1.8936705221  -0.2578598320
H     -1.2684889745  -1.2223984831  -1.5342260831
H     -2.0308408724   0.3679099979   1.0560094181
H     -1.2299965680   1.8724514996  -1.1145200989
C     -0.0198743008  -0.5603647165   1.1778491470
H      0.4085816899  -0.5669155623   2.1972695375
13
Frame written by nebterpolator, Thu Mar  3 06:26:57 2022
C      1.4245987721   0.3328660350  -0.0721961805
C      0.5720967977  -0.9688066958  -0.1692017225
C     -0.6481475312  -0.3344707499  -1.2779513889
C     -1.0896223866   0.1564007426   0.5292399879
C     -0.5288841050   1.1018637749  -0.7554719240
N      0.9942666078   1.5192140951  -0.4202698509
H      2.2711225476   0.2309895269   0.6209336178
H      1.1837431533  -1.8798542694  -0.2654873865
H     -1.2499687848  -1.2334365432  -1.4976765765
H     -2.0255084767   0.3911494598   1.0638242001
H     -1.2245201032   1.8685704148  -1.1312525644
C     -0.0432133302  -0.5862622659   1.1740931888
H      0.3640368391  -0.5982235249   2.2014165996
13
Frame written by nebterpolator, Thu Mar  3 06:26:57 2022
C      1.4236358491   0.3346081712  -0.0807698832
C      0.5750204155  -0.9624079948  -0.1651017138
C     -0.6340271319  -0.3341507484  -1.2728794406
C     -1.0874726512   0.1672910316   0.5383439496
C     -0.5282990035   1.1008286513  -0.7513592741
N      0.9828121289   1.5203246972  -0.4144642102
H      2.2926281134   0.2434593670   0.5851699763
H      1.1949415559  -1.8672533132  -0.2711538871
H     -1.2331707694  -1.2407629076  -1.4658037205
H     -2.0213500778   0.4144379066   1.0703773202
H     -1.2191717023   1.8625539689  -1.1456322057
C     -0.0654616495  -0.6086441255   1.1692170494
H      0.3199149229  -0.6302847043   2.2040560397
13
Frame written by nebterpolator, Thu Mar  3 06:26:57 2022
C      1.4235264838   0.3361552229  -0.0881484682
C      0.5795150800  -0.9548110319  -0.1605184972
C     -0.6181283665  -0.3353191830  -1.2662877456
C     -1.0856226216   0.1788112962   0.5477247546
C     -0.5281363166   1.0976625657  -0.7460263027
N      0.9703521179   1.5199452149  -0.4097647853
H      2.3149366160   0.2567366959   0.5491262201
H      1.2043651732  -1.8557423434  -0.2749116955
H     -1.2180461145  -1.2451877355  -1.4384368566
H     -2.0180336313   0.4379463402   1.0762787631
H     -1.2141151784   1.8546638276  -1.1577969717
C     -0.0868347467  -0.6278500368   1.1634998403
H      0.2762215047  -0.6630108330   2.2052617446
13
Frame written by nebterpolator, Thu Mar  3 06:26:57 2022
C      1.4244297901   0.3378529010  -0.0944917769
C      0.5851599915  -0.9464397999  -0.1555155711
C     -0.6005865176  -0.3378668685  -1.2588192494
C     -1.0840299953   0.1908986321   0.5574872249
C     -0.5283804382   1.0925948586  -0.7396814809
N      0.9572834261   1.5184931813  -0.4060662071
H      2.3376697132   0.2708251660   0.5130981609
H      1.2121460994  -1.8454210636  -0.2767901348
H     -1.2045181702  -1.2472900654  -1.4155946918
H     -2.0152316832   0.4617945726   1.0820433645
H     -1.2094906078   1.8450777349  -1.1678733112
C     -0.1074609628  -0.6441298675   1.1571580000
H      0.2330093549  -0.6963893816   2.2050456730
13
Frame written by nebterpolator, Thu Mar  3 06:26:57 2022
C      1.4266102454   0.3402356444  -0.0999407904
C      0.5914012949  -0.9379058387  -0.1501752654
C     -0.5815833825  -0.3417894135  -1.2509453708
C     -1.0826389295   0.2034550393   0.5677094104
C     -0.5289934219   1.0858351191  -0.7325173401
N      0.9440138541   1.5164755253  -0.4032661009
H      2.3605605801   0.2859354761   0.4774298723
H      1.2182182059  -1.8365455894  -0.2768011017
H     -1.1924852104  -1.2475132972  -1.3973868895
H     -2.0126119993   0.4860511105   1.0881269905
H     -1.2054246179   1.8339270037  -1.1759895004
C     -0.1274260208  -0.6577146025   1.1503720004
H      0.1903594021  -0.7304461773   2.2033840856
13
Frame written by nebterpolator, Thu Mar  3 06:26:57 2022
C      1.4302839405   0.3437864497  -0.1046103842
C      0.5977351211  -0.9297686851  -0.1445687232
C     -0.5613176276  -0.3470978113  -1.2430205939
C     -1.0813986064   0.2163889815   0.5784450682
C     -0.5299525222   1.0775593866  -0.7247065106
N      0.9308945907   1.5143331877  -0.4012951839
H      2.3833848256   0.3022611604   0.4424491868
H      1.2224923479  -1.8293576118  -0.2749249208
H     -1.1818139846  -1.2461916387  -1.3839752478
H     -2.0098597045   0.5107668936   1.0949454764
H     -1.2020443913   1.8213149316  -1.1822624412
C     -0.1467639186  -0.6687856660   1.1432939816
H      0.1483599294  -0.7652095781   2.2002302926
13
Frame written by nebterpolator, Thu Mar  3 06:26:57 2022
C      1.4355214428   0.3487178162  -0.1084319998
C      0.6039870772  -0.9222482951  -0.1386803679
C     -0.5398484613  -0.3538911839  -1.2354443229
C     -1.0803199600   0.2297612381   0.5898401212
C     -0.5314236193   1.0676445112  -0.7163532398
N      0.9181626148   1.5121588627  -0.4003753404
H      2.4056695087   0.3196832462   0.4086147942
H      1.2249087647  -1.8240681498  -0.2706623736
H     -1.1724170823  -1.2433608889  -1.3765914720
H     -2.0065264031   0.5361781990   1.1032917136
H     -1.1997238174   1.8071107102  -1.1864855483
C     -0.1652337825  -0.6768898742   1.1360860830
H      0.1072437177  -0.8007961916   2.1951919528
13
Frame written by nebterpolator, Thu Mar  3 06:26:57 2022
C      1.4416593475   0.3545545814  -0.1116718631
C      0.6101163493  -0.9152031145  -0.1326088512
C     -0.5177261828  -0.3616360317  -1.2283886757
C     -1.0793612039   0.2434788503   0.6017336783
C     -0.5333758200   1.0566313371  -0.7077662586
N      0.9058058065   1.5099732457  -0.4003056424
H      2.4271947576   0.3375597043   0.3758615060
H      1.2261927392  -1.8200473771  -0.2644914027
H     -1.1636503814  -1.2395965415  -1.3739058065
H     -2.0024483339   0.5622082369   1.1132434141
H     -1.1983844759   1.7918318916  -1.1893071530
C     -0.1828973618  -0.6827803119   1.1289643817
H      0.0668747597  -0.8369744706   2.1886426730
13
Frame written by nebterpolator, Thu Mar  3 06:26:57 2022
C      1.4485049573   0.3612227384  -0.1143756691
C      0.6160827946  -0.9086992256  -0.1263304071
C     -0.4951932065  -0.3701893143  -1.2219469914
C     -1.0786128593   0.2576452153   0.6139962801
C     -0.5358857954   1.0446755740  -0.6990603550
N      0.8938237882   1.5078217566  -0.4009972623
H      2.4478264966   0.3557212211   0.3442425291
H      1.2265607055  -1.8171622581  -0.2564411574
H     -1.1552840672  -1.2350549994  -1.3756765860
H     -1.9975471305   0.5889643910   1.1248581762
H     -1.1980783164   1.7756034019  -1.1909473932
C     -0.1995687532  -0.6867573942   1.1220872966
H      0.0273713863  -0.8737911066   2.1805915395
13
Frame written by nebterpolator, Thu Mar  3 06:26:57 2022
C      1.4558014925   0.3685234102  -0.1165934946
C      0.6219314564  -0.9026541920  -0.1198501195
C     -0.4724345816  -0.3793903267  -1.2161888817
C     -1.0781115479   0.2723034311   0.6265479065
C     -0.5390071487   1.0319072217  -0.6903208405
N      0.8821830375   1.5056561904  -0.4024206490
H      2.4674307364   0.3738906133   0.3137777046
H      1.2262497411  -1.8152131660  -0.2465486927
H     -1.1470822392  -1.2298568033  -1.3816546188
H     -1.9917407596   0.6164761511   1.1382041502
H     -1.1988477602   1.7585488311  -1.1915670583
C     -0.2151325182  -0.6889943903   1.1155747901
H     -0.0112399086  -0.9111969706   2.1710398036
13
Frame written by nebterpolator, Thu Mar  3 06:26:57 2022
C      1.4632232224   0.3761480704  -0.1183660619
C      0.6277836031  -0.8968607231  -0.1131923954
C     -0.4495954903  -0.3890699269  -1.2111993027
C     -1.0778578352   0.2874650875   0.6393573017
C     -0.5428026816   1.0184155178  -0.6816154977
N      0.8708312528   1.5033382969  -0.4046267276
H      2.4858158328   0.3916613775   0.2845064691
H      1.2255154940  -1.8139551679  -0.2347884966
H     -1.1387828570  -1.2240786707  -1.3917263745
H     -1.9848964135   0.6447356612   1.1534395328
H     -1.2007750520   1.7407718856  -1.1912504578
C     -0.2294812380  -0.6894977916   1.1095399658
H     -0.0489778374  -0.9490736168   2.1599220450
13
Frame written by nebterpolator, Thu Mar  3 06:26:57 2022
C      1.4702595228   0.3836120606  -0.1196674514
C      0.6338883590  -0.8909956862  -0.1063746061
C     -0.4268757832  -0.3990601025  -1.2072408131
C     -1.0779230802   0.3032577410   0.6524151564
C     -0.5475181694   1.0041744499  -0.6730134097
N      0.8597027962   1.5005661782  -0.4078522402
H      2.5024353603   0.4082464028   0.2567058331
H      1.2246724795  -1.8131168341  -0.2207389297
H     -1.1299169180  -1.2176768170  -1.4065047092
H     -1.9765963362   0.6738556995   1.1711345051
H     -1.2042318143   1.7222753219  -1.1898943853
C     -0.2421658698  -0.6878934180   1.1043158578
H     -0.0857305468  -0.9872449961   2.1467151923
13
Frame written by nebterpolator, Thu Mar  3 06:26:57 2022
C      1.4769884928   0.3910224861  -0.1208222587
C      0.6401378578  -0.8851845275  -0.0995813171
C     -0.4044796517  -0.4093099418  -1.2041032680
C     -1.0782713936   0.3192633832   0.6658026853
C     -0.5528722477   0.9895156192  -0.6645224079
N      0.8490513012   1.4973268466  -0.4117064989
H      2.5175474015   0.4239425377   0.2297636357
H      1.2237033479  -1.8123075778  -0.2051643231
H     -1.1203169211  -1.2107692016  -1.4242202252
H     -1.9670143318   0.7032434868   1.1905503488
H     -1.2085520625   1.7033147922  -1.1877129570
C     -0.2538672749  -0.6848967876   1.0999648564
H     -0.1220545179  -1.0251611155   2.1317517295
13
Frame written by nebterpolator, Thu Mar  3 06:26:57 2022
C      1.4834653060   0.3984698974  -0.1219455716
C      0.6464455590  -0.8795207079  -0.0928852858
C     -0.3824626753  -0.4198213336  -1.2017341935
C     -1.0788787559   0.3353375534   0.6795595273
C     -0.5587865248   0.9745138543  -0.6561198617
N      0.8389947981   1.4936403314  -0.4160776843
H      2.5312008870   0.4388477144   0.2035582502
H      1.2225426639  -1.8114746087  -0.1882527913
H     -1.1099159005  -1.2033837406  -1.4444636635
H     -1.9561169087   0.7326883590   1.2115092973
H     -1.2135749947   1.6839487956  -1.1847043981
C     -0.2647856082  -0.6806745948   1.0965311968
H     -0.1581278459  -1.0625715199   2.1150251781
13
Frame written by nebterpolator, Thu Mar  3 06:26:57 2022
C      1.4897199835   0.4060616849  -0.1231665983
C      0.6527284561  -0.8740606701  -0.0863699676
C     -0.3608754406  -0.4306017475  -1.2000786112
C     -1.0797177416   0.3513106229   0.6937453925
C     -0.5651736858   0.9592172495  -0.6477761499
N      0.8297017447   1.4894567448  -0.4208399465
H      2.5434415724   0.4530810568   0.1779430358
H      1.2211334943  -1.8105489090  -0.1701966427
H     -1.0986675241  -1.1955439248  -1.4668420713
H     -1.9438679095   0.7619594618   1.2338461654
H     -1.2191148085   1.6642406938  -1.1808514177
C     -0.2751608147  -0.6753551213   1.0940367008
H     -0.1941473263  -1.0992171419   2.0965501105
13
Frame written by nebterpolator, Thu Mar  3 06:26:57 2022
C      1.4954639433   0.4143473060  -0.1250998044
C      0.6587731019  -0.8687230574  -0.0805093273
C     -0.3401042453  -0.4418677106  -1.1993300681
C     -1.0808115060   0.3663269124   0.7089852319
C     -0.5719208569   0.9434005551  -0.6393850700
N      0.8226184578   1.4836495700  -0.4256533982
H      2.5536015779   0.4668458394   0.1524642227
H      1.2192732889  -1.8090234353  -0.1510715739
H     -1.0861218754  -1.1870324505  -1.4912704934
H     -1.9294154917   0.7900066837   1.2578659740
H     -1.2245633093   1.6442724631  -1.1755263869
C     -0.2858721807  -0.6684381192   1.0928749896
H     -0.2309209044  -1.1337645567   2.0756557039
13
Frame written by nebterpolator, Thu Mar  3 06:26:57 2022
C      1.5008645114   0.4231348787  -0.1275958740
C      0.6646589828  -0.8634559341  -0.0751334272
C     -0.3199566415  -0.4534466693  -1.1991102024
C     -1.0821003864   0.3805625611   0.7249432313
C     -0.5788304477   0.9272805783  -0.6309469749
N      0.8171584569   1.4766316903  -0.4303475758
H      2.5624203603   0.4804024655   0.1268944795
H      1.2171241819  -1.8069670557  -0.1314699162
H     -1.0727534803  -1.1780848714  -1.5166181340
H     -1.9135741842   0.8170261395   1.2827393743
H     -1.2297135971   1.6242127496  -1.1692280691
C     -0.2970120922  -0.6606193895   1.0926020755
H     -0.2682856640  -1.1666771431   2.0532710130
13
Frame written by nebterpolator, Thu Mar  3 06:26:57 2022
C      1.5061018524   0.4321376467  -0.1303942508
C      0.6704830948  -0.8582686090  -0.0700385717
C     -0.3001965281  -0.4652064946  -1.1992348866
C     -1.0835012749   0.3943398588   0.7413345068
C     -0.5858554883   0.9110301012  -0.6225054216
N      0.8125835622   1.4689946400  -0.4350406311
H      2.5703808822   0.4937317572   0.1013257194
H      1.2147860759  -1.8045807193  -0.1115618272
H     -1.0588435973  -1.1688578305  -1.5425358227
H     -1.8968805459   0.8434223700   1.3081349669
H     -1.2347241036   1.6040796466  -1.1623324276
C     -0.3083562349  -0.6522656885   1.0929187688
H     -0.3059776944  -1.1985566788   2.0299298775
13
Frame written by nebterpolator, Thu Mar  3 06:26:57 2022
C      1.5112798226   0.4411874797  -0.1333489374
C      0.6763030072  -0.8531720431  -0.0651134598
C     -0.2806988120  -0.4770748989  -1.1996092507
C     -1.0849685920   0.4078340412   0.7580059451
C     -0.5929735257   0.8947503755  -0.6140878017
N      0.8084819660   1.4610741319  -0.4398073906
H      2.5777348701   0.5068071411   0.0758162693
H      1.2123103143  -1.8019708848  -0.0914357383
H     -1.0445361797  -1.1594329026  -1.5688383679
H     -1.8796206543   0.8694122942   1.3338757905
H     -1.2396863957   1.5838799695  -1.1550399084
C     -0.3197753656  -0.6435755800   1.0936728013
H     -0.3438504550  -1.2297191237   2.0059100486
