13   
Frame written by nebterpolator, Thu Mar  3 14:22:48 2022
C        1.3118553965    0.3025645483    0.2420680501
C        0.6068016140   -1.0007437408   -0.1830377253
C       -0.6883432701   -0.4654887350   -0.8439833543
C       -1.0780816294    0.1914248105    0.4506992150
C       -0.5189778790    1.0592796455   -0.6927874810
N        0.8291126319    1.4230372465   -0.4714120611
H        2.3483758206    0.2894064774    0.5607696643
H        1.1233254710   -1.9344691093   -0.3753888304
H       -1.2958121827   -0.9367535784   -1.6085309573
H       -2.0520569287    0.3366788924    0.9044507955
H       -1.1651298397    1.7418607690   -1.2337022453
C        0.2167204484   -0.3451412793    1.1120381956
H        0.3622103476   -0.6616559464    2.1388167342
13   
Frame written by nebterpolator, Thu Mar  3 14:22:48 2022
C        1.3381675700    0.3176578522    0.1496758216
C        0.5986161861   -0.9774671860   -0.1726758859
C       -0.6645382357   -0.4275353055   -0.9493278295
C       -1.0715370637    0.1839952868    0.4689182852
C       -0.5212174729    1.0692976658   -0.7147591357
N        0.8813973852    1.4584115573   -0.4520964792
H        2.3421124258    0.2706398932    0.5782819522
H        1.1409392773   -1.9231398831   -0.3374008955
H       -1.3146421843   -1.0358446032   -1.5854721256
H       -2.0549344508    0.3494932850    0.9384085795
H       -1.1874740173    1.7857570573   -1.2150883895
C        0.1499530164   -0.3893389644    1.1265975445
H        0.3631575639   -0.6819266554    2.1649385578
13   
Frame written by nebterpolator, Thu Mar  3 14:22:48 2022
C        1.3702114588    0.3444346725    0.0603588269
C        0.5832074982   -0.9737741784   -0.1657911514
C       -0.6282604274   -0.4130197635   -1.0426750583
C       -1.0767162104    0.1775000232    0.5077267016
C       -0.5153298173    1.0795907658   -0.7346687628
N        0.9115212265    1.4904715685   -0.4262398231
H        2.3385814922    0.2802902464    0.5648996960
H        1.1441639021   -1.9114268282   -0.3140457750
H       -1.3077871397   -1.1028615487   -1.5590592843
H       -2.0576643531    0.3760336225    0.9643380879
H       -1.1868652393    1.8138385979   -1.2057604351
C        0.0518566302   -0.4685469195    1.1620780508
H        0.3730809794   -0.6925302586    2.1888389267
13   
Frame written by nebterpolator, Thu Mar  3 14:22:48 2022
C        1.4026178761    0.3616979175   -0.0097667814
C        0.5887930082   -0.9698380673   -0.1534808395
C       -0.5932654868   -0.4002965416   -1.0851731868
C       -1.0851061369    0.1743105121    0.5427275801
C       -0.5086651687    1.0815082102   -0.7439629254
N        0.9085816916    1.5145411492   -0.3980183708
H        2.3645717040    0.2961228455    0.5034365480
H        1.1569961901   -1.8966722639   -0.3109699543
H       -1.2868611387   -1.1259488259   -1.5313176827
H       -2.0650333590    0.4153498751    0.9715172668
H       -1.1808990139    1.8206752952   -1.2072602944
C       -0.0500866588   -0.5924117130    1.1974431756
H        0.3483564929   -0.6790383931    2.2248254648
13   
Frame written by nebterpolator, Thu Mar  3 14:22:48 2022
C        1.4303839660    0.3773309480   -0.0542234704
C        0.6178903388   -0.9405776331   -0.1371360362
C       -0.5672103268   -0.3958190669   -1.0711651432
C       -1.0839476553    0.1956285068    0.5694675261
C       -0.5052437859    1.0748450044   -0.7536716456
N        0.8959335278    1.5288315175   -0.3859811493
H        2.4129121201    0.3221056888    0.4174986393
H        1.1805978778   -1.8689768823   -0.3069442465
H       -1.2708837653   -1.1359725850   -1.4787786621
H       -2.0661342416    0.4711189994    0.9711324183
H       -1.1798571181    1.8030968794   -1.2290621555
C       -0.1225655037   -0.6740604600    1.2113424273
H        0.2581245662   -0.7575509170    2.2475214977
13   
Frame written by nebterpolator, Thu Mar  3 14:22:48 2022
C        1.4491644374    0.3885019869   -0.0842902615
C        0.6510805804   -0.9064134846   -0.1226602768
C       -0.5398952567   -0.3958900214   -1.0332427223
C       -1.0815601632    0.2280597864    0.5987971618
C       -0.4998754364    1.0659076020   -0.7558902336
N        0.8796780375    1.5333600955   -0.3836386572
H        2.4619180801    0.3495142821    0.3258012172
H        1.2029240647   -1.8422255980   -0.3023895744
H       -1.2478789659   -1.1373567979   -1.4326934284
H       -2.0695541300    0.5251715946    0.9692540889
H       -1.1787636076    1.7758170954   -1.2524002345
C       -0.1911766077   -0.7316526094    1.2162650338
H        0.1639389675   -0.8527939314    2.2570878868
13   
Frame written by nebterpolator, Thu Mar  3 14:22:48 2022
C        1.4710656110    0.4059451415   -0.1080021186
C        0.6802149073   -0.8797160582   -0.1101967543
C       -0.5131135010   -0.4011706899   -0.9838293943
C       -1.0777803915    0.2658763425    0.6321700039
C       -0.4924673215    1.0560077946   -0.7514982568
N        0.8672364831    1.5381682549   -0.3885990160
H        2.5102912715    0.3859175577    0.2364083260
H        1.2184548790   -1.8242787201   -0.2951814346
H       -1.2198136655   -1.1361662828   -1.3955733077
H       -2.0731362202    0.5769938951    0.9692997028
H       -1.1781401798    1.7428755829   -1.2713213724
C       -0.2613709195   -0.7757665312    1.2139297824
H        0.0685590471   -0.9546862869    2.2523938396
13   
Frame written by nebterpolator, Thu Mar  3 14:22:48 2022
C        1.4967085453    0.4285718352   -0.1277872982
C        0.7059866949   -0.8587043712   -0.0992639343
C       -0.4894764395   -0.4113576183   -0.9293337602
C       -1.0721102502    0.3069800719    0.6689034364
C       -0.4846397003    1.0457456780   -0.7428655279
N        0.8603566340    1.5439209702   -0.4015498411
H        2.5554456167    0.4282000564    0.1551142522
H        1.2295366108   -1.8129941205   -0.2830968786
H       -1.1890226003   -1.1367498547   -1.3658842195
H       -2.0747768968    0.6275967500    0.9740463503
H       -1.1790057314    1.7074753954   -1.2843147622
C       -0.3301271966   -0.8045351097    1.2049182216
H       -0.0288752865   -1.0641496827    2.2311139615
13   
Frame written by nebterpolator, Thu Mar  3 14:22:48 2022
C        1.5236931439    0.4504818899   -0.1445780519
C        0.7333045875   -0.8383050943   -0.0890920261
C       -0.4715780396   -0.4238813552   -0.8731931746
C       -1.0648139221    0.3495230024    0.7065127686
C       -0.4785655181    1.0350109832   -0.7315741608
N        0.8580902043    1.5473623224   -0.4220449647
H        2.5963949095    0.4698050294    0.0831979804
H        1.2417457689   -1.8035730402   -0.2655787936
H       -1.1580310489   -1.1400570033   -1.3410076381
H       -2.0737647892    0.6770663766    0.9844287835
H       -1.1823829964    1.6720865317   -1.2909546713
C       -0.3916558725   -0.8173661827    1.1907353277
H       -0.1324364272   -1.1781534600    2.1931486210
13   
Frame written by nebterpolator, Thu Mar  3 14:22:48 2022
C        1.5542074014    0.4725634420   -0.1601297217
C        0.7624939113   -0.8212575391   -0.0796810699
C       -0.4602206467   -0.4378886751   -0.8162802126
C       -1.0574150781    0.3907037625    0.7426811627
C       -0.4745727001    1.0235250563   -0.7166968536
N        0.8604573875    1.5490664920   -0.4465139917
H        2.6354731645    0.5114424845    0.0183248766
H        1.2552228720   -1.7974755452   -0.2438131460
H       -1.1276794272   -1.1446098658   -1.3206997918
H       -2.0709555863    0.7244986274    0.9995340809
H       -1.1877478650    1.6376738670   -1.2900999963
C       -0.4444130185   -0.8197789330    1.1727688414
H       -0.2448504149   -1.2884631733    2.1406058220
13   
Frame written by nebterpolator, Thu Mar  3 14:22:48 2022
C        1.5909026121    0.4983673767   -0.1770796661
C        0.7909178675   -0.8127740917   -0.0723262642
C       -0.4534550788   -0.4546313997   -0.7585537711
C       -1.0521683415    0.4286117450    0.7770486584
C       -0.4714012875    1.0112337478   -0.6961221724
N        0.8673300856    1.5514600632   -0.4706968808
H        2.6750976273    0.5569119826   -0.0428138909
H        1.2672961513   -1.7984599792   -0.2197970078
H       -1.0961382622   -1.1491244881   -1.3062994079
H       -2.0679776838    0.7700925301    1.0184347833
H       -1.1932669655    1.6043362238   -1.2807204298
C       -0.4929858434   -0.8190968381    1.1519762924
H       -0.3641508810   -1.3869268725    2.0769497569
13   
Frame written by nebterpolator, Thu Mar  3 14:22:48 2022
C        1.6316014068    0.5250934123   -0.1981743587
C        0.8195772372   -0.8122345950   -0.0699165590
C       -0.4489640619   -0.4751612623   -0.7010859713
C       -1.0509356471    0.4637142980    0.8106909086
C       -0.4684222009    0.9981277246   -0.6685866986
N        0.8769873741    1.5535017897   -0.4926591485
H        2.7142744563    0.6049638228   -0.1001918922
H        1.2801269637   -1.8056556876   -0.1946890442
H       -1.0615156879   -1.1538793913   -1.2983278075
H       -2.0655978863    0.8162866572    1.0426663258
H       -1.1976079255    1.5722533223   -1.2628654548
C       -0.5433630666   -0.8175214805    1.1287750725
H       -0.4861609617   -1.4694886103    2.0043646278
13   
Frame written by nebterpolator, Thu Mar  3 14:22:48 2022
C        1.6743477048    0.5445339254   -0.2216059356
C        0.8602205954   -0.8145139765   -0.0747195661
C       -0.4542620746   -0.4979736239   -0.6498703233
C       -1.0548296550    0.4969140716    0.8422844259
C       -0.4692784604    0.9822376514   -0.6370035008
N        0.8899209077    1.5493684885   -0.5141814931
H        2.7514965483    0.6503178771   -0.1448408988
H        1.3063890219   -1.8127686625   -0.1686524563
H       -1.0329978766   -1.1587911645   -1.2954068221
H       -2.0609977077    0.8677412392    1.0770374982
H       -1.2017984690    1.5423989236   -1.2384488272
C       -0.5986979986   -0.8133265259    1.1024635006
H       -0.6095125363   -1.5361382236    1.9229443986
13   
Frame written by nebterpolator, Thu Mar  3 14:22:48 2022
C        1.7186799490    0.5535553263   -0.2429540567
C        0.9193508285   -0.8187691226   -0.0889623179
C       -0.4766773911   -0.5212471201   -0.6114515222
C       -1.0636200213    0.5258020126    0.8677008124
C       -0.4769226810    0.9623096418   -0.6058333687
N        0.9073889206    1.5372003029   -0.5339690576
H        2.7854718533    0.6897347027   -0.1670155018
H        1.3541781728   -1.8163229442   -0.1446268792
H       -1.0223566821   -1.1639218237   -1.2950425551
H       -2.0490970791    0.9260750045    1.1244119213
H       -1.2062935971    1.5160554838   -1.2114271729
C       -0.6588360330   -0.8059058548    1.0723383172
H       -0.7312662394   -1.5845656091    1.8368313814
13   
Frame written by nebterpolator, Thu Mar  3 14:22:48 2022
C        1.7552337213    0.5508376401   -0.2647194369
C        0.9855911922   -0.8217918793   -0.1166442244
C       -0.5002534349   -0.5453565252   -0.5796761811
C       -1.0757819537    0.5503438140    0.8881353642
C       -0.4867485797    0.9411280769   -0.5729283925
N        0.9220869216    1.5204204243   -0.5450444117
H        2.8117078014    0.7178905575   -0.1775551803
H        1.4161175274   -1.8149396374   -0.1277755431
H       -1.0165912942   -1.1725730302   -1.2935835005
H       -2.0283101870    0.9904931174    1.1835830528
H       -1.2087914801    1.4906242304   -1.1857577315
C       -0.7236914390   -0.7930920907    1.0392889460
H       -0.8505687952   -1.6139846979    1.7526772389
13   
Frame written by nebterpolator, Thu Mar  3 14:22:48 2022
C        1.7739464955    0.5355287570   -0.2877168281
C        1.0472264657   -0.8204084901   -0.1606238143
C       -0.5082501820   -0.5710986569   -0.5492539622
C       -1.0914022206    0.5713741292    0.9048020459
C       -0.4950967589    0.9205403951   -0.5365236296
N        0.9258648192    1.5022012234   -0.5395927543
H        2.8252382202    0.7289613858   -0.1883242591
H        1.4850917814   -1.8070058423   -0.1259662787
H       -1.0011363519   -1.1879645587   -1.2885097022
H       -1.9952513474    1.0629196533    1.2544885444
H       -1.2071753999    1.4620944772   -1.1661519116
C       -0.7926684730   -0.7737532790    1.0053881039
H       -0.9663870483   -1.6233891939    1.6779844459
13   
Frame written by nebterpolator, Thu Mar  3 14:22:48 2022
C        1.7617548368    0.5076475181   -0.3088524213
C        1.0900817969   -0.8095178188   -0.2129605547
C       -0.4845837618   -0.5948192489   -0.5217418013
C       -1.1120234407    0.5886051695    0.9201368519
C       -0.5005239110    0.9018514306   -0.5011958400
N        0.9082704269    1.4839486960   -0.5148274924
H        2.8191123038    0.7186302946   -0.2087505415
H        1.5505880892   -1.7900425818   -0.1496770514
H       -0.9628610468   -1.2104708572   -1.2802644317
H       -1.9444093391    1.1480973265    1.3300384479
H       -1.2017603007    1.4274389733   -1.1599028400
C       -0.8572564189   -0.7539786785    0.9802744341
H       -1.0663892347   -1.6173902234    1.6277232405
13   
Frame written by nebterpolator, Thu Mar  3 14:22:48 2022
C        1.7217495420    0.4890553444   -0.3211199202
C        1.1024870449   -0.8024254253   -0.2546110844
C       -0.4293773697   -0.6148400090   -0.5049649526
C       -1.1533019410    0.5882157749    0.9250072333
C       -0.5041578995    0.8851256678   -0.4769547226
N        0.8704758047    1.4748289744   -0.4812650581
H        2.7981365583    0.7074596886   -0.2349292937
H        1.5897197450   -1.7782532623   -0.1894719747
H       -0.9042215113   -1.2316874201   -1.2802488157
H       -1.8519252659    1.2461898083    1.4051623386
H       -1.1956604185    1.3933178392   -1.1660437240
C       -0.9095227862   -0.7467022790    0.9705987599
H       -1.1344015028   -1.6102847020    1.6088412141
13   
Frame written by nebterpolator, Thu Mar  3 14:22:48 2022
C        1.6945157570    0.4844391207   -0.3261260168
C        1.1037825636   -0.8051106184   -0.2851617120
C       -0.3910055894   -0.6398991319   -0.4959685989
C       -1.2062961259    0.5896452461    0.9084675104
C       -0.5127856238    0.8738973385   -0.4650128740
N        0.8418952491    1.4741600348   -0.4415716032
H        2.7794482905    0.7050937371   -0.2454500724
H        1.6161459437   -1.7733445095   -0.2247435121
H       -0.8576765104   -1.2501466752   -1.2868966049
H       -1.7213935101    1.3106474824    1.5052624451
H       -1.1828057112    1.3679016126   -1.1844386998
C       -0.9641336482   -0.7415500025    0.9496400670
H       -1.1996910849   -1.5957336350    1.5919996716
13   
Frame written by nebterpolator, Thu Mar  3 14:22:48 2022
C        1.6826967611    0.4780710321   -0.3306747625
C        1.1153953715   -0.8163670595   -0.3292439698
C       -0.3685434740   -0.6766566786   -0.4797262699
C       -1.2417946166    0.6098235861    0.8940324348
C       -0.5210403167    0.8647301729   -0.4495929030
N        0.8233827158    1.4708808593   -0.3923389980
H        2.7635092566    0.6996862564   -0.2489187451
H        1.6566283362   -1.7686766602   -0.2788342837
H       -0.8318559983   -1.2704084984   -1.2820951197
H       -1.6108572498    1.3435568485    1.6098361691
H       -1.1558176844    1.3447324100   -1.2049509590
C       -1.0287833198   -0.7231015462    0.9170253601
H       -1.2829197816   -1.5562707224    1.5754820469
13   
Frame written by nebterpolator, Thu Mar  3 14:22:48 2022
C        1.6831453044    0.4587545760   -0.3392167030
C        1.1429896624   -0.8354919986   -0.4011608657
C       -0.3449165255   -0.7180911835   -0.4471978002
C       -1.2134761665    0.6460818054    0.9263898064
C       -0.5153496924    0.8525959529   -0.4181831336
N        0.8093529570    1.4601711812   -0.3450224016
H        2.7471040179    0.6792975566   -0.2637081979
H        1.7113625920   -1.7587928270   -0.3767725623
H       -0.8308086369   -1.2903499545   -1.2483563531
H       -1.6214309565    1.3566951813    1.6388101066
H       -1.1181864428    1.3182111313   -1.2075476608
C       -1.0839680141   -0.6847866488    0.9007669795
H       -1.3658180991   -1.4842947723    1.5811987857
