13   
Frame written by nebterpolator, Wed Mar  2 11:39:44 2022
C        1.4248047795    0.8351905861   -0.3608573685
C        0.2641754905   -1.4178065682   -0.2075422499
C       -0.9823267957   -1.0560105798    0.2082138302
C       -1.4531096034    0.2801671230    0.4719680000
C       -0.7560878234    1.4684735380    0.3605923550
N        0.5127386001    1.7692626350   -0.0041128838
H        2.3887301342    1.2820544124   -0.6143378257
H        0.4497371851   -2.4790931123   -0.3605291759
H       -1.7079332310   -1.8526234531    0.3598812301
H       -2.4868337669    0.3703446867    0.7968987782
H       -1.3309948254    2.3624711309    0.6124714574
C        1.3779230141   -0.5422021264   -0.4692217660
H        2.2991768418   -1.0202282729   -0.7934243814
13   
Frame written by nebterpolator, Wed Mar  2 11:39:44 2022
C        1.4255473601    0.8468540576   -0.3246563946
C        0.2565190794   -1.4131232800   -0.1711840917
C       -0.9769988657   -1.0529142413    0.2326694162
C       -1.4567158866    0.2764498462    0.4425056078
C       -0.7518223320    1.4584823304    0.3469697472
N        0.5252210920    1.7473496399    0.0395033543
H        2.3980468261    1.2582214667   -0.4696749686
H        0.4840037181   -2.4597057650   -0.2586156959
H       -1.6880520564   -1.8505500400    0.4122152746
H       -2.5077850467    0.3744085557    0.7402647354
H       -1.3314118957    2.3648534104    0.5856585580
C        1.3637811161   -0.5240175116   -0.6220710604
H        2.2596668913   -1.0263084690   -0.9535844824
13   
Frame written by nebterpolator, Wed Mar  2 11:39:44 2022
C        1.4292122803    0.8432230229   -0.2907122637
C        0.2573665652   -1.4080560631   -0.1422320825
C       -0.9721004681   -1.0530948586    0.2609143916
C       -1.4655708261    0.2735435872    0.4138293132
C       -0.7510887756    1.4569667557    0.3326761473
N        0.5367443249    1.7324735219    0.0812531369
H        2.4207624427    1.2176891301   -0.3221224969
H        0.5257225098   -2.4442071862   -0.1660727463
H       -1.6667378017   -1.8525630904    0.4732995003
H       -2.5258903567    0.3759668088    0.6812580930
H       -1.3310124347    2.3684393945    0.5565782838
C        1.3327002640   -0.4945892662   -0.7669369137
H        2.2098922760   -1.0157917564   -1.1117323631
13   
Frame written by nebterpolator, Wed Mar  2 11:39:44 2022
C        1.4263132809    0.8087014598   -0.2513483597
C        0.2746981452   -1.3814896340   -0.1104897774
C       -0.9637152855   -1.0441458688    0.2863090481
C       -1.4759523869    0.2721731636    0.3910338613
C       -0.7538141795    1.4569537177    0.3177305382
N        0.5420044247    1.7103716717    0.1133251334
H        2.4385072879    1.1433027440   -0.1823463000
H        0.5849390922   -2.4115582004   -0.0829947880
H       -1.6420746999   -1.8543912384    0.5216492753
H       -2.5440039137    0.3744471450    0.6315624330
H       -1.3298832353    2.3755659118    0.5264209312
C        1.2925854698   -0.4534557223   -0.8952381762
H        2.1503959999   -0.9964751497   -1.2656138191
13   
Frame written by nebterpolator, Wed Mar  2 11:39:44 2022
C        1.4104638114    0.7326033182   -0.2082020619
C        0.3144811761   -1.3230918007   -0.0727700336
C       -0.9492631574   -1.0221374546    0.3015754063
C       -1.4873985921    0.2744190612    0.3756953026
C       -0.7610032495    1.4583220645    0.3040259015
N        0.5368922491    1.6791492791    0.1342864912
H        2.4415278262    1.0296311734   -0.0692591910
H        0.6637242004   -2.3517341211   -0.0130141589
H       -1.6109342595   -1.8544378239    0.5426419552
H       -2.5616102670    0.3697535178    0.5978039524
H       -1.3273677010    2.3867865914    0.5017566336
C        1.2477144603   -0.4058594680   -0.9935598633
H        2.0827735029   -0.9734043371   -1.4009803343
13   
Frame written by nebterpolator, Wed Mar  2 11:39:44 2022
C        1.3871878616    0.6424999050   -0.1666291346
C        0.3595430579   -1.2548763523   -0.0330371775
C       -0.9330110059   -0.9981584228    0.3118541312
C       -1.4985417711    0.2773759615    0.3630899859
C       -0.7677048838    1.4607980679    0.2938112471
N        0.5296757194    1.6464307830    0.1534049595
H        2.4316397899    0.9007587474    0.0278381035
H        0.7481516789   -2.2785594284    0.0549513252
H       -1.5777180646   -1.8538334200    0.5498807553
H       -2.5778907866    0.3635575456    0.5670420617
H       -1.3218408900    2.3990576939    0.4816540949
C        1.2078389813   -0.3554378089   -1.0798638393
H        2.0126703129   -0.9496132717   -1.5239965129
13   
Frame written by nebterpolator, Wed Mar  2 11:39:44 2022
C        1.3684690375    0.5672993154   -0.1301361374
C        0.4028375110   -1.2047070363    0.0128344660
C       -0.9374324203   -0.9821987372    0.3368158689
C       -1.5132590396    0.2716189760    0.3544531298
C       -0.7668061945    1.4579139841    0.2909840180
N        0.5375428430    1.6108096792    0.1791941940
H        2.4150824378    0.7789970668    0.1204311632
H        0.8363437403   -2.2078792620    0.1305811333
H       -1.5669178762   -1.8507979657    0.5566959630
H       -2.5963928539    0.3578449425    0.5180182517
H       -1.3072455655    2.4072398031    0.4590885695
C        1.1850511686   -0.2914493098   -1.1747111114
H        1.9427272119   -0.9146914561   -1.6542495084
13   
Frame written by nebterpolator, Wed Mar  2 11:39:44 2022
C        1.3480691304    0.4945109451   -0.0985604901
C        0.4412512425   -1.1616105367    0.0710350106
C       -0.9404714571   -0.9723370242    0.3654768551
C       -1.5248327449    0.2667943029    0.3445852816
C       -0.7625085846    1.4507592156    0.2960978654
N        0.5520668462    1.5702493116    0.2147437820
H        2.3946553784    0.6592143989    0.1937618003
H        0.9202173992   -2.1397811681    0.2109101529
H       -1.5616992121   -1.8504424656    0.5532926036
H       -2.6121743945    0.3539980418    0.4533533862
H       -1.2875623170    2.4123671516    0.4400454372
C        1.1690124537   -0.2140286305   -1.2619886791
H        1.8639762595   -0.8696935424   -1.7827530057
13   
Frame written by nebterpolator, Wed Mar  2 11:39:44 2022
C        1.3413232136    0.4471792932   -0.0678683774
C        0.4694329336   -1.1215431693    0.1318312051
C       -0.9241533006   -0.9650049897    0.3775324047
C       -1.5226069729    0.2645499547    0.3264069226
C       -0.7606718546    1.4385260124    0.3055388407
N        0.5576647496    1.5415491028    0.2606327689
H        2.3814168452    0.5751380406    0.2594607766
H        0.9843072638   -2.0804475226    0.2932743846
H       -1.5417958578   -1.8519778441    0.5496793926
H       -2.6155107335    0.3460868087    0.3890176059
H       -1.2795240409    2.4090570740    0.4183743479
C        1.1896937023   -0.1261527353   -1.3471267577
H        1.7204240523   -0.8769600253   -1.8967535145
13   
Frame written by nebterpolator, Wed Mar  2 11:39:44 2022
C        1.3545721130    0.4040456840   -0.0291668553
C        0.4989371295   -1.0969155348    0.1761090696
C       -0.8968507424   -0.9591475825    0.3754224070
C       -1.5117176363    0.2637551765    0.3062875191
C       -0.7629252604    1.4326246148    0.2866937142
N        0.5489839124    1.5358701731    0.2938261180
H        2.3797357688    0.5096319482    0.3375913797
H        1.0291611123   -2.0468625618    0.3486487984
H       -1.5135021352   -1.8518838389    0.5570616676
H       -2.6089545035    0.3350924943    0.3586729071
H       -1.2841625559    2.4043141499    0.3846327992
C        1.2577390102   -0.0483176765   -1.3828728938
H        1.5089837875   -0.8822070460   -2.0129066306
13   
Frame written by nebterpolator, Wed Mar  2 11:39:44 2022
C        1.3545626010    0.3382185805    0.0096057445
C        0.5110340238   -1.0936724727    0.2311645912
C       -0.8651587057   -0.9691160060    0.3703198438
C       -1.4970492074    0.2627995181    0.2883773405
C       -0.7530314170    1.4350572482    0.2613751089
N        0.5557924378    1.5314643986    0.3100495199
H        2.3739880890    0.4118749942    0.4013245667
H        1.0604728929   -2.0316715695    0.4075576308
H       -1.4917042212   -1.8613825209    0.5462110952
H       -2.5978855146    0.3274428183    0.3287882579
H       -1.2712417552    2.4069092033    0.3588641375
C        1.2899579939    0.0188999522   -1.3773004663
H        1.3302627827   -0.7768241443   -2.1363373706
13   
Frame written by nebterpolator, Wed Mar  2 11:39:44 2022
C        1.3418489041    0.2707802564    0.0302721649
C        0.5177562158   -1.1052423444    0.3080014974
C       -0.8456953769   -0.9933856542    0.3720218355
C       -1.4823123892    0.2583879045    0.2707186932
C       -0.7273172050    1.4302811545    0.2692672683
N        0.5846788716    1.5106141393    0.3418931259
H        2.3716197446    0.3030608589    0.4070037247
H        1.1016179470   -2.0208815840    0.4888584609
H       -1.4920922883   -1.8778816160    0.5088144522
H       -2.5841275522    0.3262172189    0.2567061496
H       -1.2340165911    2.4084139680    0.3543965654
C        1.2513503120    0.0939503257   -1.3786550621
H        1.1966894075   -0.6043146276   -2.2292988759
13   
Frame written by nebterpolator, Wed Mar  2 11:39:44 2022
C        1.3402213426    0.2177372570    0.0412205063
C        0.5272168226   -1.1280060599    0.3820984707
C       -0.8340076739   -1.0208679841    0.3745407041
C       -1.4662980842    0.2502396150    0.2523412339
C       -0.7025202635    1.4174599233    0.2856719058
N        0.6278459161    1.4851811857    0.3824573585
H        2.3843140506    0.2091252888    0.3784336636
H        1.1420434936   -2.0230504184    0.5626581527
H       -1.5019921459   -1.8927735699    0.4691032796
H       -2.5646840784    0.3247276490    0.1771136950
H       -1.1963378989    2.4028856014    0.3551445936
C        1.1927570921    0.1805841803   -1.3750850324
H        1.0514414272   -0.4232426683   -2.2856985314
13   
Frame written by nebterpolator, Wed Mar  2 11:39:44 2022
C        1.3499322556    0.1793813944    0.0450953873
C        0.5294663782   -1.1677547919    0.4460236811
C       -0.8240230142   -1.0544867743    0.3748726267
C       -1.4473167578    0.2409277828    0.2344023626
C       -0.6783029600    1.4001690656    0.2998654943
N        0.6797754378    1.4591659831    0.4177921629
H        2.4066301281    0.1299462747    0.3306112892
H        1.1666709498   -2.0466785057    0.6215855604
H       -1.5152041918   -1.9083639218    0.4301375671
H       -2.5396110467    0.3244750691    0.1062948859
H       -1.1586530178    2.3925313709    0.3581187019
C        1.1314773709    0.2791386549   -1.3572906609
H        0.8991584680   -0.2284516018   -2.3075090584
13   
Frame written by nebterpolator, Wed Mar  2 11:39:44 2022
C        1.3581279915    0.1267535077    0.0470802905
C        0.5396501929   -1.2028037035    0.4817916954
C       -0.8095657889   -1.0821327804    0.3642973798
C       -1.4262999311    0.2338350493    0.2184755671
C       -0.6555217205    1.3815228045    0.3071275882
N        0.7257230190    1.4271897106    0.4448106503
H        2.4275855434    0.0400528318    0.2762699248
H        1.1913500484   -2.0750348732    0.6557116728
H       -1.5222901871   -1.9203228323    0.4046302819
H       -2.5133757040    0.3249831898    0.0560253416
H       -1.1192771758    2.3821986488    0.3563724354
C        1.0695850325    0.3823570611   -1.3201424390
H        0.7343086794   -0.0185986143   -2.2924503888
13   
Frame written by nebterpolator, Wed Mar  2 11:39:44 2022
C        1.4077480197    0.1755874697    0.0162097319
C        0.4910449353   -1.2983152059    0.5535435403
C       -0.8304172522   -1.1366208395    0.3823622148
C       -1.4098761240    0.2148281215    0.2054124042
C       -0.6316139882    1.3585372516    0.3212707298
N        0.7968616385    1.4208240230    0.4177948247
H        2.4671124122    0.0600498116    0.2083873043
H        1.1327252662   -2.1602369933    0.6960499890
H       -1.5534514342   -1.9415930508    0.3314236491
H       -2.4888749687    0.3269815258    0.0187895230
H       -1.0930114065    2.3575214551    0.3963591562
C        1.0595638241    0.4865377791   -1.2914274676
H        0.6521890778    0.1358986521   -2.2561755998
13   
Frame written by nebterpolator, Wed Mar  2 11:39:44 2022
C        1.4352082996    0.1823019954   -0.0010361432
C        0.4683449259   -1.3482865689    0.5823557622
C       -0.8359960349   -1.1650028700    0.3841565845
C       -1.3966983156    0.2046827619    0.1980352568
C       -0.6164224408    1.3430968095    0.3272944495
N        0.8362229755    1.4109140567    0.3874620648
H        2.4896417161    0.0515923788    0.1710879423
H        1.0988790727   -2.2111292533    0.7103021057
H       -1.5635865071   -1.9540133308    0.2929274758
H       -2.4733468317    0.3276775013    0.0087077311
H       -1.0737400528    2.3422367306    0.4174307163
C        1.0529499827    0.5614063224   -1.2645760235
H        0.5785432104    0.2545234664   -2.2141479223
13   
Frame written by nebterpolator, Wed Mar  2 11:39:44 2022
C        1.3900835448    0.0560296632    0.0329974167
C        0.5396080431   -1.2624270993    0.4845681547
C       -0.7987516554   -1.1158750060    0.3388556373
C       -1.3980608893    0.2198821136    0.2077040648
C       -0.6254704504    1.3526023471    0.3033287817
N        0.7850211848    1.3834369101    0.3865563126
H        2.4601711005   -0.0604490864    0.2228107959
H        1.1707870267   -2.1500290111    0.6523555942
H       -1.5274675577   -1.9371021214    0.3759058979
H       -2.4851293971    0.3241787230    0.0603863115
H       -1.0691583259    2.3612144641    0.3658188191
C        1.0352589034    0.5475179379   -1.2435779496
H        0.5231084724    0.2810201651   -2.1877098368
13   
Frame written by nebterpolator, Wed Mar  2 11:39:44 2022
C        1.4041451140   -0.0150940952    0.0348281644
C        0.5450734872   -1.2503774197    0.4140312464
C       -0.8060253454   -1.0983778193    0.3151906276
C       -1.4008989588    0.2169643109    0.2245277258
C       -0.6268065780    1.3476413038    0.2685426946
N        0.7683580985    1.3580237588    0.2248839823
H        2.4549814906   -0.0948164686    0.3209577104
H        1.1169427028   -2.1783368331    0.5943165508
H       -1.5125807943   -1.9377991467    0.4010191936
H       -2.4958348150    0.3204403417    0.1823340518
H       -1.0597601282    2.3583842027    0.3561696450
C        1.1021736580    0.6107000459   -1.2176064834
H        0.5102320686    0.3626478191   -2.1191951092
13   
Frame written by nebterpolator, Wed Mar  2 11:39:44 2022
C        1.4117379208   -0.0624328502    0.0402469528
C        0.5291405656   -1.2420642071    0.3482503254
C       -0.8175080643   -1.0845985822    0.3033038618
C       -1.4135455141    0.2244973907    0.2449845733
C       -0.6396206402    1.3492174018    0.2174003105
N        0.7447790807    1.3263083719    0.0671580856
H        2.4208834599   -0.0923537708    0.4539832485
H        1.0399762884   -2.1996607617    0.5412566627
H       -1.4976309603   -1.9389665341    0.4258477115
H       -2.5037803368    0.3271704827    0.3193075605
H       -1.0548951483    2.3601724099    0.3396660947
C        1.1916164915    0.6456993619   -1.2064947710
H        0.5888468571    0.3870112872   -2.0949106161
13   
Frame written by nebterpolator, Wed Mar  2 11:39:44 2022
C        1.4201258592   -0.1102457039    0.0437406180
C        0.5131430826   -1.2404086446    0.2844096631
C       -0.8315315215   -1.0779425025    0.2988434207
C       -1.4326655262    0.2447544380    0.2682274338
C       -0.6677288371    1.3505297139    0.1618312354
N        0.7278310960    1.2823628800   -0.0724007467
H        2.3692255611   -0.0891025893    0.5789650420
H        0.9590764770   -2.2129026878    0.4792617381
H       -1.4797767166   -1.9369299244    0.4497674187
H       -2.4981846856    0.3475476200    0.4535917572
H       -1.0519440033    2.3545724731    0.3176918551
C        1.2790549638    0.6786783182   -1.1928777802
H        0.6933742504    0.4090866093   -2.0710516553
