13
Frame written by nebterpolator, Thu Mar  3 04:41:48 2022
C      1.5751877236   0.4456964295  -0.0859246270
C      0.8224775221  -0.8153030354   0.1174561384
C     -0.5187162062  -0.9686041869  -0.5830774992
C     -1.1193980815   0.3160409781  -0.0361673903
C     -0.3701428071   1.5789271588  -0.2388473708
N      0.9609130039   1.6141495743  -0.2598457188
H      2.6634259738   0.4386562133  -0.0979529891
H      1.4063163589  -1.7246875642   0.2497027670
H     -0.9207244973  -1.7424615602  -1.2221101752
H     -2.2063341362   0.3789713473  -0.0331540677
H     -0.9040697882   2.5169144806  -0.3782928638
C     -0.5024268939  -0.7468623541   0.8584352223
H     -0.8865081718  -1.2914374808   1.7097785743
13
Frame written by nebterpolator, Thu Mar  3 04:41:48 2022
C      1.5736245963   0.4358212858  -0.0889636423
C      0.8317542387  -0.8256078337   0.0909320293
C     -0.5130105388  -0.9801579042  -0.5707035930
C     -1.1282173340   0.3156545123  -0.0372054324
C     -0.3757126151   1.5738769029  -0.2382572881
N      0.9556711196   1.6072014659  -0.2514355887
H      2.6646213338   0.4357403567  -0.0767127770
H      1.4212996349  -1.7379196225   0.2259283195
H     -0.9284275320  -1.7408952520  -1.2233485016
H     -2.2192464921   0.3656938577  -0.0613024645
H     -0.9059923319   2.5209425388  -0.3615480633
C     -0.4960567046  -0.7036638050   0.8729071060
H     -0.8803073748  -1.2666865026   1.7197098961
13
Frame written by nebterpolator, Thu Mar  3 04:41:48 2022
C      1.5720623256   0.4257897868  -0.0917809049
C      0.8409246873  -0.8360449097   0.0647146122
C     -0.5072282049  -0.9922946760  -0.5582831100
C     -1.1369979775   0.3152600668  -0.0379798453
C     -0.3814550115   1.5690019018  -0.2376849847
N      0.9503715705   1.6003215248  -0.2430842597
H      2.6654918634   0.4325945428  -0.0558120079
H      1.4361053055  -1.7506833645   0.2025749385
H     -0.9359421385  -1.7382557579  -1.2255731197
H     -2.2315268475   0.3520744001  -0.0884616123
H     -0.9078532313   2.5246516198  -0.3455795242
C     -0.4897961299  -0.6605564668   0.8876950460
H     -0.8741562114  -1.2418586680   1.7292547720
13
Frame written by nebterpolator, Thu Mar  3 04:41:48 2022
C      1.5707986728   0.4152680140  -0.0942317248
C      0.8502196042  -0.8470126145   0.0391024341
C     -0.5014795671  -1.0059554664  -0.5458932352
C     -1.1461043794   0.3148779897  -0.0382258235
C     -0.3876871694   1.5646425937  -0.2371628965
N      0.9450184581   1.5936411605  -0.2349994253
H      2.6653232591   0.4289979567  -0.0354539594
H      1.4505420260  -1.7621941658   0.1798860859
H     -0.9429000474  -1.7332975906  -1.2294853308
H     -2.2424254764   0.3378275207  -0.1138693592
H     -0.9094018228   2.5275725974  -0.3308874110
C     -0.4839234727  -0.6177454403   0.9034641635
H     -0.8679800850  -1.2166225550   1.7377564822
13
Frame written by nebterpolator, Thu Mar  3 04:41:48 2022
C      1.5696246283   0.4038756059  -0.0961655455
C      0.8597127952  -0.8583017814   0.0143932964
C     -0.4958130856  -1.0214816669  -0.5335885867
C     -1.1554894577   0.3144457283  -0.0377423756
C     -0.3944176061   1.5608224416  -0.2367612272
N      0.9394098055   1.5870890271  -0.2273160792
H      2.6638732329   0.4245731228  -0.0157737075
H      1.4647513752  -1.7721035781   0.1581421728
H     -0.9490252549  -1.7251857801  -1.2359825598
H     -2.2517841770   0.3227716578  -0.1368189748
H     -0.9106186228   2.5296240835  -0.3179427722
C     -0.4784656826  -0.5752887273   0.9203004922
H     -0.8617579504  -1.1908401332   1.7452558671
13
Frame written by nebterpolator, Thu Mar  3 04:41:48 2022
C      1.5681955706   0.3919799537  -0.0974196412
C      0.8689255832  -0.8698320913  -0.0093043903
C     -0.4903510458  -1.0389511239  -0.5214268712
C     -1.1647827957   0.3137661748  -0.0364096652
C     -0.4013497581   1.5572204312  -0.2366713035
N      0.9335304854   1.5804785608  -0.2198921185
H      2.6613895187   0.4194832451   0.0032409621
H      1.4787431919  -1.7809735140   0.1375789400
H     -0.9542162310  -1.7134779640  -1.2460023785
H     -2.2599443754   0.3068026170  -0.1566900224
H     -0.9116312317   2.5309582662  -0.3072172712
C     -0.4731560530  -0.5330692223   0.9377754113
H     -0.8553528590  -1.1643853333   1.7524383488
13
Frame written by nebterpolator, Thu Mar  3 04:41:48 2022
C      1.5662964307   0.3798249629  -0.0978616671
C      0.8775166677  -0.8816377467  -0.0318717680
C     -0.4853993689  -1.0584191247  -0.5096866203
C     -1.1738200923   0.3126957309  -0.0341652482
C     -0.4082745361   1.5536157852  -0.2370868676
N      0.9273800716   1.5736746949  -0.2126807041
H      2.6579787208   0.4138579503   0.0217649787
H      1.4924267007  -1.7892119058   0.1183203072
H     -0.9582355455  -1.6979259650  -1.2601186965
H     -2.2672187564   0.2898820034  -0.1730148552
H     -0.9124895024   2.5316877176  -0.2989488125
C     -0.4677015732  -0.4909941525   0.9555526212
H     -0.8484592166  -1.1370499505   1.7597973324
13
Frame written by nebterpolator, Thu Mar  3 04:41:48 2022
C      1.5638452961   0.3675537047  -0.0973570323
C      0.8852616164  -0.8937826519  -0.0532234988
C     -0.4813533891  -1.0796350756  -0.4989103046
C     -1.1825840458   0.3112095887  -0.0310781681
C     -0.4150888591   1.5499374899  -0.2381289708
N      0.9209898284   1.5666375902  -0.2056558729
H      2.6536547243   0.4077720399   0.0401028796
H      1.5055908890  -1.7970906790   0.1003190303
H     -0.9608603905  -1.6788796144  -1.2782194704
H     -2.2738291946   0.2720453779  -0.1855785060
H     -0.9131926300   2.5319090270  -0.2931171886
C     -0.4617735492  -0.4489903960   0.9733435261
H     -0.8406602959  -1.1086864012   1.7675035764
13
Frame written by nebterpolator, Thu Mar  3 04:41:48 2022
C      1.5608738545   0.3555548793  -0.0957564130
C      0.8917551142  -0.9064343068  -0.0734023349
C     -0.4784958359  -1.1019410763  -0.4897618139
C     -1.1910203997   0.3093715185  -0.0273457232
C     -0.4217077356   1.5461851239  -0.2398333320
N      0.9145378315   1.5594258542  -0.1986586407
H      2.6485111551   0.4014657831   0.0586198844
H      1.5177463235  -1.8050047624   0.0833346741
H     -0.9620651310  -1.6574641732  -1.2995422883
H     -2.2799143768   0.2533578899  -0.1944321560
H     -0.9137484885   2.5317434119  -0.2895490734
C     -0.4549806146  -0.4069805957   0.9907982511
H     -0.8314916968  -1.0792795465   1.7755289659
13
Frame written by nebterpolator, Thu Mar  3 04:41:48 2022
C      1.5575046318   0.3444640893  -0.0928950936
C      0.8964808820  -0.9198454882  -0.0925905680
C     -0.4769721036  -1.1243945317  -0.4829490957
C     -1.1990024603   0.3072826652  -0.0232422117
C     -0.4280352213   1.5423860207  -0.2421750742
N      0.9083281826   1.5521642304  -0.1914025848
H      2.6427061552   0.3953612333   0.0777488883
H      1.5282317537  -1.8134491426   0.0669822799
H     -0.9621341874  -1.6353472545  -1.3229061622
H     -2.2855169663   0.2338814064  -0.1998094078
H     -0.9141713506   2.5313141301  -0.2880241300
C     -0.4469265011  -0.3649013914   1.0075288851
H     -0.8204928148  -1.0489159670   1.7837342749
13
Frame written by nebterpolator, Thu Mar  3 04:41:48 2022
C      1.5538092116   0.3344328046  -0.0885843863
C      0.8995531842  -0.9339181868  -0.1109831323
C     -0.4770338161  -1.1458850957  -0.4793328127
C     -1.2064693109   0.3050638644  -0.0190810130
C     -0.4340306040   1.5386289547  -0.2450887947
N      0.9024540698   1.5449506156  -0.1837215341
H      2.6362243495   0.3895635892   0.0981055541
H      1.5368888781  -1.8225415802   0.0508679815
H     -0.9617092904  -1.6142250115  -1.3469753895
H     -2.2906103256   0.2137104543  -0.2019952219
H     -0.9144399017   2.5307168053  -0.2883012482
C     -0.4373442628  -0.3227444850   1.0232287690
H     -0.8072921818  -1.0177527290   1.7918612281
13
Frame written by nebterpolator, Thu Mar  3 04:41:48 2022
C      1.5495514169   0.3244794041  -0.0826379424
C      0.9020774299  -0.9476854629  -0.1286749046
C     -0.4789511600  -1.1649402783  -0.4798481289
C     -1.2133997836   0.3028879724  -0.0151941059
C     -0.4397382338   1.5350901141  -0.2484119639
N      0.8964891640   1.5377947055  -0.1757609252
H      2.6288264842   0.3833230805   0.1204369325
H      1.5444386586  -1.8316347221   0.0346464373
H     -0.9617089806  -1.5957133629  -1.3703817437
H     -2.2951513033   0.1929835447  -0.2013699741
H     -0.9145499977   2.5301088519  -0.2900599594
C     -0.4261406087  -0.2805492036   1.0377085346
H     -0.7917430860  -0.9861446434   1.7995477437
13
Frame written by nebterpolator, Thu Mar  3 04:41:48 2022
C      1.5447730421   0.3145100861  -0.0748405345
C      0.9048149796  -0.9608091925  -0.1459544155
C     -0.4829483073  -1.1805049686  -0.4851245014
C     -1.2196427815   0.3007437018  -0.0117938814
C     -0.4450961922   1.5317714337  -0.2521043453
N      0.8903923400   1.5307175683  -0.1674812775
H      2.6203423928   0.3766714842   0.1454873912
H      1.5512943656  -1.8405183507   0.0179812714
H     -0.9634923195  -1.5809991099  -1.3921637894
H     -2.2989492508   0.1717206973  -0.1982186983
H     -0.9144428972   2.5294628274  -0.2933062108
C     -0.4133017296  -0.2384039317   1.0509220230
H     -0.7737436420  -0.9543622455   1.8065969686
13
Frame written by nebterpolator, Thu Mar  3 04:41:48 2022
C      1.5399198201   0.3061194722  -0.0649129911
C      0.9075466854  -0.9743422732  -0.1633816836
C     -0.4893353537  -1.1927365670  -0.4952733489
C     -1.2248323053   0.2982756835  -0.0087378766
C     -0.4498456150   1.5283025994  -0.2565182117
N      0.8847765933   1.5237719501  -0.1585739967
H      2.6107116495   0.3710325967   0.1740638358
H      1.5570375739  -1.8499530677   0.0006742895
H     -0.9685215706  -1.5699027439  -1.4126171805
H     -2.3016530293   0.1498107983  -0.1921760260
H     -0.9140051286   2.5283685190  -0.2988218649
C     -0.3987865344  -0.1964537112   1.0629637162
H     -0.7530127854  -0.9222932563   1.8133113384
13
Frame written by nebterpolator, Thu Mar  3 04:41:48 2022
C      1.5347297066   0.3010027091  -0.0529961838
C      0.9070418817  -0.9893884850  -0.1816437523
C     -0.4957336700  -1.2018909961  -0.5093435790
C     -1.2281229002   0.2952501977  -0.0054647623
C     -0.4538289878   1.5246273267  -0.2618224768
N      0.8803657140   1.5175065953  -0.1487272979
H      2.5997366916   0.3669885603   0.2058282973
H      1.5589265633  -1.8611605287  -0.0178551879
H     -0.9752850888  -1.5618754974  -1.4322302173
H     -2.3025594097   0.1268570117  -0.1828299273
H     -0.9135435920   2.5265773905  -0.3072521374
C     -0.3824518563  -0.1548799278   1.0739218033
H     -0.7292750525  -0.8896143562   1.8204154214
13
Frame written by nebterpolator, Thu Mar  3 04:41:48 2022
C      1.5281844492   0.2992249517  -0.0395547846
C      0.8995584529  -1.0058092460  -0.2011157267
C     -0.4984469192  -1.2076903042  -0.5259768268
C     -1.2286567722   0.2916936282  -0.0013508238
C     -0.4571437034   1.5210511240  -0.2678394345
N      0.8772815554   1.5125569621  -0.1381210566
H      2.5870134419   0.3634240485   0.2396615734
H      1.5540157283  -1.8746091195  -0.0383329710
H     -0.9804079925  -1.5563806763  -1.4512492298
H     -2.3009500179   0.1024403059  -0.1701691689
H     -0.9136147451   2.5241667299  -0.3186215546
C     -0.3642555686  -0.1138656711   1.0840277643
H     -0.7025779088  -0.8562027333   1.8286422397
13
Frame written by nebterpolator, Thu Mar  3 04:41:48 2022
C      1.5194868926   0.2986652947  -0.0245499652
C      0.8867683905  -1.0219907990  -0.2211923753
C     -0.4978690785  -1.2097436089  -0.5450318953
C     -1.2263749213   0.2873842191   0.0037923949
C     -0.4598732525   1.5174808921  -0.2747440679
N      0.8745771567   1.5086607496  -0.1279784308
H      2.5719630779   0.3588518679   0.2756177429
H      1.5438222489  -1.8888969129  -0.0602732823
H     -0.9837399978  -1.5515212924  -1.4707192978
H     -2.2967471546   0.0767456837  -0.1539921227
H     -0.9142325308   2.5210517783  -0.3331402754
C     -0.3444418313  -0.0739886736   1.0938604926
H     -0.6733389997  -0.8226991988   1.8383510823
13
Frame written by nebterpolator, Thu Mar  3 04:41:48 2022
C      1.5073619569   0.2959005584  -0.0081288135
C      0.8709846055  -1.0350316384  -0.2407840162
C     -0.4940029117  -1.2067929409  -0.5661724824
C     -1.2211882718   0.2822597981   0.0099696451
C     -0.4621674079   1.5140835004  -0.2824834551
N      0.8708366084   1.5056029675  -0.1200746184
H      2.5538959071   0.3506991547   0.3131709238
H      1.5304564198  -1.9016845878  -0.0829911998
H     -0.9847667361  -1.5456086492  -1.4910791608
H     -2.2898665008   0.0503391778  -0.1345977826
H     -0.9154941012   2.5173532930  -0.3505960630
C     -0.3235249423  -0.0365123218   1.1039654486
H     -0.6425246259  -0.7906083120   1.8498015743
13
Frame written by nebterpolator, Thu Mar  3 04:41:48 2022
C      1.4913263309   0.2875829591   0.0095648294
C      0.8572552583  -1.0417843307  -0.2580661599
C     -0.4892690732  -1.1979747546  -0.5891517022
C     -1.2134756509   0.2762118685   0.0167894329
C     -0.4640209899   1.5106999094  -0.2911476264
N      0.8647181418   1.5027402417  -0.1166497432
H      2.5326042451   0.3374442304   0.3517167164
H      1.5182550053  -1.9099627682  -0.1049178519
H     -0.9849769157  -1.5364678540  -1.5126811869
H     -2.2806843413   0.0249171488  -0.1125687924
H     -0.9171302957   2.5129814491  -0.3707259238
C     -0.3026592966  -0.0037936925   1.1147844379
H     -0.6119424181  -0.7625944070   1.8630535702
13
Frame written by nebterpolator, Thu Mar  3 04:41:48 2022
C      1.4741072930   0.2754677070   0.0275855670
C      0.8503403522  -1.0430480784  -0.2715750009
C     -0.4882225736  -1.1856298575  -0.6123116687
C     -1.2048674119   0.2695023018   0.0231877227
C     -0.4651337642   1.5069101544  -0.3005460420
N      0.8571140222   1.4995588024  -0.1177726008
H      2.5104277863   0.3225583220   0.3891667981
H      1.5112367947  -1.9133453574  -0.1237106465
H     -0.9878065436  -1.5237677532  -1.5342630182
H     -2.2708982182   0.0033990254  -0.0900050589
H     -0.9183936549   2.5078540159  -0.3921794396
C     -0.2837320763   0.0215505191   1.1257627301
H     -0.5841720058  -0.7410098016   1.8766606578
13
Frame written by nebterpolator, Thu Mar  3 04:41:48 2022
C      1.4560477110   0.2632408825   0.0465026878
C      0.8454660699  -1.0421985671  -0.2832780193
C     -0.4887792743  -1.1706732984  -0.6350580484
C     -1.1948476718   0.2622495821   0.0294192990
C     -0.4654585429   1.5025889549  -0.3109203440
N      0.8496293390   1.4966180127  -0.1216925252
H      2.4873706068   0.3081693495   0.4262765195
H      1.5054136160  -1.9149472503  -0.1417070944
H     -0.9917533483  -1.5087940628  -1.5552157363
H     -2.2601397983  -0.0148123916  -0.0668104529
H     -0.9195719409   2.5016462506  -0.4156605251
C     -0.2657145527   0.0410859613   1.1370383361
H     -0.5576622134  -0.7241734234   1.8911059033
13
Frame written by nebterpolator, Thu Mar  3 04:41:48 2022
C      1.4373588210   0.2533364127   0.0668807551
C      0.8397461628  -1.0412242353  -0.2944712835
C     -0.4895729751  -1.1536843255  -0.6566853936
C     -1.1831099716   0.2546409635   0.0356076652
C     -0.4650664294   1.4975782947  -0.3223855926
N      0.8436546922   1.4941849909  -0.1273918322
H      2.4634466048   0.2956765893   0.4635211852
H      1.4984666345  -1.9165381510  -0.1608992565
H     -0.9958283756  -1.4925671182  -1.5747173563
H     -2.2482529522  -0.0294804356  -0.0430539213
H     -0.9209814441   2.4939763498  -0.4417404016
C     -0.2482209692   0.0553963181   1.1487428660
H     -0.5316397981  -0.7112956532   1.9065925661
13
Frame written by nebterpolator, Thu Mar  3 04:41:48 2022
C      1.4182518065   0.2457625382   0.0889001900
C      0.8337075131  -1.0402476839  -0.3054724543
C     -0.4907652391  -1.1353252894  -0.6766201096
C     -1.1701923543   0.2469050684   0.0415854531
C     -0.4641634177   1.4918886910  -0.3346749306
N      0.8396330205   1.4920111300  -0.1344692202
H      2.4388977649   0.2851384298   0.5009638796
H      1.4912142225  -1.9179270458  -0.1822071354
H     -1.0002139953  -1.4757998730  -1.5920799900
H     -2.2357965159  -0.0400951692  -0.0193091674
H     -0.9226828044   2.4848177159  -0.4701472894
C     -0.2315746006   0.0648594751   1.1609415282
H     -0.5063154002  -0.7019879870   1.9225892460
13
Frame written by nebterpolator, Thu Mar  3 04:41:48 2022
C      1.3988647324   0.2402807696   0.1125310206
C      0.8277628323  -1.0393414184  -0.3165655133
C     -0.4923329885  -1.1163296489  -0.6945031524
C     -1.1566236001   0.2392787645   0.0472376816
C     -0.4627951071   1.4856681719  -0.3474416894
N      0.8375387664   1.4899535681  -0.1424147911
H      2.4139556311   0.2763841994   0.5386038619
H      1.4844097110  -1.9188657565  -0.2063068410
H     -1.0049750387  -1.4593737779  -1.6068119100
H     -2.2232975038  -0.0465103940   0.0039892500
H     -0.9245704909   2.4743262768  -0.5004712314
C     -0.2159850110   0.0703224791   1.1734655671
H     -0.4819519332  -0.6957932339   1.9386877475
13
Frame written by nebterpolator, Thu Mar  3 04:41:48 2022
C      1.3790414063   0.2359509505   0.1376498693
C      0.8226236166  -1.0379249824  -0.3277476071
C     -0.4940624900  -1.0970511643  -0.7099865446
C     -1.1429118036   0.2319771171   0.0524634933
C     -0.4610248614   1.4791767231  -0.3602491595
N      0.8371380230   1.4878518782  -0.1510366873
H      2.3887060333   0.2686243704   0.5762646615
H      1.4791359067  -1.9185471028  -0.2337656646
H     -1.0099785836  -1.4440886138  -1.6184122126
H     -2.2112530024  -0.0485136230   0.0263924297
H     -0.9265675863   2.4627241139  -0.5322255476
C     -0.2018067389   0.0723603448   1.1861544233
H     -0.4590399198  -0.6925400116   1.9544985463
13
Frame written by nebterpolator, Thu Mar  3 04:41:48 2022
C      1.3585328106   0.2317249193   0.1641593508
C      0.8190789619  -1.0353364286  -0.3389420026
C     -0.4957197138  -1.0778468220  -0.7227031336
C     -1.1295774209   0.2251937752   0.0571723440
C     -0.4587124758   1.4727719553  -0.3726084408
N      0.8379681322   1.4856327076  -0.1601283171
H      2.3631765526   0.2610155716   0.6137675994
H      1.4766629330  -1.9159305300  -0.2653240460
H     -1.0151400564  -1.4309783681  -1.6262159288
H     -2.2001891155  -0.0457182848   0.0474595671
H     -0.9284331753   2.4502595292  -0.5650127463
C     -0.1894715327   0.0714068536   1.1988214337
H     -0.4381758999  -0.6921948785   1.9695543203
13
Frame written by nebterpolator, Thu Mar  3 04:41:48 2022
C      1.3373133523   0.2274106053   0.1920200494
C      0.8170965586  -1.0316708827  -0.3503514855
C     -0.4968954204  -1.0592828167  -0.7324697979
C     -1.1170060465   0.2191047266   0.0613703853
C     -0.4555840433   1.4667961826  -0.3841031930
N      0.8397639406   1.4834064641  -0.1691059574
H      2.3374597577   0.2533163501   0.6511238469
H      1.4774646795  -1.9105161601  -0.3019276562
H     -1.0203590173  -1.4214300544  -1.6295320265
H     -2.1904782442  -0.0378819718   0.0670023709
H     -0.9298674860   2.4371052477  -0.5986784837
C     -0.1792240794   0.0681246198   1.2111782950
H     -0.4196839516  -0.6944823105   1.9834736528
13
Frame written by nebterpolator, Thu Mar  3 04:41:48 2022
C      1.3156197902   0.2229087450   0.2209594608
C      0.8164695532  -1.0271467175  -0.3621189928
C     -0.4974178896  -1.0416920779  -0.7397136493
C     -1.1054636367   0.2137676348   0.0651015539
C     -0.4516672902   1.4614718754  -0.3945060525
N      0.8424435958   1.4812206511  -0.1774691694
H      2.3117321521   0.2453327888   0.6884126765
H      1.4814281714  -1.9021615516  -0.3435754603
H     -1.0256605968  -1.4161932294  -1.6283837998
H     -2.1822198919  -0.0255896090   0.0851190511
H     -0.9307728261   2.4234776788  -0.6329318000
C     -0.1709777701   0.0634527486   1.2229542307
H     -0.4035133614  -0.6988489371   1.9961519510
13
Frame written by nebterpolator, Thu Mar  3 04:41:48 2022
C      1.2950333516   0.2183826159   0.2489656115
C      0.8171352064  -1.0221942618  -0.3735717730
C     -0.4972844341  -1.0263240471  -0.7444473424
C     -1.0958589633   0.2095057010   0.0681594658
C     -0.4472648850   1.4572894677  -0.4030364360
N      0.8457776393   1.4792426300  -0.1843741973
H      2.2877384371   0.2374069545   0.7233905658
H      1.4881499276  -1.8912255335  -0.3874926643
H     -1.0308005739  -1.4160072648  -1.6229500247
H     -2.1759427010  -0.0101700783   0.1007839946
H     -0.9310230776   2.4103824818  -0.6654263492
C     -0.1651284396   0.0582740793   1.2333121542
H     -0.3905314874  -0.7045627447   2.0066869951
13
Frame written by nebterpolator, Thu Mar  3 04:41:48 2022
C      1.2765995352   0.2139609091   0.2745907351
C      0.8187299265  -1.0172465286  -0.3842027192
C     -0.4966620842  -1.0136622588  -0.7472196710
C     -1.0884918922   0.2063473046   0.0705043518
C     -0.4427353856   1.4544076683  -0.4094679215
N      0.8494400764   1.4775700373  -0.1894974198
H      2.2665280376   0.2297967018   0.7546772403
H      1.4966195268  -1.8785018753  -0.4308728462
H     -1.0355407127  -1.4203171190  -1.6142839908
H     -2.1716155443   0.0066288192   0.1136650942
H     -0.9306542811   2.3985133902  -0.6946235428
C     -0.1614707776   0.0533111012   1.2419079439
H     -0.3807464249  -0.7108081500   2.0148227458
13
Frame written by nebterpolator, Thu Mar  3 04:41:48 2022
C      1.2599291701   0.2095354870   0.2982495274
C      0.8208914339  -1.0124017757  -0.3941972069
C     -0.4957470549  -1.0030801067  -0.7488070779
C     -1.0828901405   0.2040042122   0.0723105141
C     -0.4381680342   1.4526040106  -0.4142540169
N      0.8533042179   1.4761483057  -0.1931620052
H      2.2475120977   0.2223218723   0.7831308767
H      1.5061394347  -1.8642772712  -0.4735668386
H     -1.0398895852  -1.4280863624  -1.6033031806
H     -2.1687052747   0.0240791458   0.1244930568
H     -0.9297724991   2.3876563743  -0.7211738409
C     -0.1593567093   0.0487459962   1.2491567087
H     -0.3732470565  -0.7172498883   2.0211234833
13
Frame written by nebterpolator, Thu Mar  3 04:41:48 2022
C      1.2445964904   0.2050178742   0.3204075018
C      0.8233639841  -1.0077103568  -0.4037224625
C     -0.4946900800  -0.9940626691  -0.7497134931
C     -1.0786391017   0.2022301132   0.0737352938
C     -0.4336057834   1.4516644701  -0.4177901281
N      0.8572959002   1.4749134432  -0.1956979770
H      2.2301228514   0.2148362232   0.8095112270
H      1.5162338887  -1.8487367897  -0.5156659420
H     -1.0438206622  -1.4384033551  -1.5907047703
H     -2.1667896475   0.0417820054   0.1338774398
H     -0.9284636701   2.3775624874  -0.7457402954
C     -0.1583056484   0.0445760170   1.2554694005
H     -0.3672985216  -0.7236694631   2.0260342056
13
Frame written by nebterpolator, Thu Mar  3 04:41:48 2022
C      1.2302629940   0.2003634817   0.3414145850
C      0.8259867814  -1.0031973012  -0.4128968395
C     -0.4935885711  -0.9862531088  -0.7502271250
C     -1.0754157173   0.2008504436   0.0748915937
C     -0.4290708759   1.4514097581  -0.4203818593
N      0.8613708677   1.4738070172  -0.1973859759
H      2.2139291301   0.2072607005   0.8343550090
H      1.5265881219  -1.8320276004  -0.5572499325
H     -1.0473022701  -1.4505308179  -1.5770054045
H     -2.1655632058   0.0595235099   0.1422579240
H     -0.9267932167   2.3680269338  -0.7688290014
C     -0.1579920279   0.0407593177   1.2611263134
H     -0.3624120102  -0.7299923341   2.0299307130
13
Frame written by nebterpolator, Thu Mar  3 04:41:48 2022
C      1.2166733175   0.1955560645   0.3615588747
C      0.8285856525  -0.9989901218  -0.4218509122
C     -0.4924052617  -0.9794945128  -0.7505399957
C     -1.0730039006   0.1997428138   0.0758791287
C     -0.4245357146   1.4517787353  -0.4222570179
N      0.8653925524   1.4728647397  -0.1984557108
H      2.1985275290   0.1995822573   0.8579589409
H      1.5368174896  -1.8142357345  -0.5984120379
H     -1.0501511528  -1.4639131625  -1.5625153515
H     -2.1647233283   0.0772025873   0.1499150438
H     -0.9247125819   2.3588564072  -0.7907587439
C     -0.1582012280   0.0372222204   1.2663739023
H     -0.3582633731  -0.7361722938   2.0331038795
13
Frame written by nebterpolator, Thu Mar  3 04:41:48 2022
C      1.2036471470   0.1905930617   0.3810404930
C      0.8310644504  -0.9951563854  -0.4306712343
C     -0.4911125022  -0.9736734231  -0.7507541789
C     -1.0712501413   0.1988239278   0.0767658531
C     -0.4199786829   1.4527143009  -0.4235742298
N      0.8692725087   1.4721029073  -0.1990702933
H      2.1836500245   0.1918051244   0.8805285977
H      1.5466985281  -1.7954491754  -0.6392192100
H     -1.0522746305  -1.4781658978  -1.5474475981
H     -2.1640767269   0.0947721465   0.1570331654
H     -0.9221980389   2.3499197774  -0.8117528569
C     -0.1587975372   0.0339012613   1.2713746091
H     -0.3546443987  -0.7421876256   2.0357468831
13
Frame written by nebterpolator, Thu Mar  3 04:41:48 2022
C      1.1911529956   0.1854182775   0.3998485253
C      0.8333462102  -0.9918110605  -0.4393831646
C     -0.4896995286  -0.9689322416  -0.7508961498
C     -1.0701809520   0.1980523480   0.0775922656
C     -0.4153841056   1.4542764067  -0.4243295749
N      0.8729180363   1.4715370041  -0.1992723283
H      2.1692240729   0.1838996230   0.9019967527
H      1.5559969149  -1.7754704156  -0.6795988898
H     -1.0534454549  -1.4931002038  -1.5319169683
H     -2.1635285138   0.1121460875   0.1636564492
H     -0.9191312358   2.3411626819  -0.8317891797
C     -0.1597677352   0.0307898271   1.2762041122
H     -0.3515007041  -0.7479683342   2.0378881505
13
Frame written by nebterpolator, Thu Mar  3 04:41:48 2022
C      1.1789668063   0.1800249551   0.4182070499
C      0.8353684746  -0.9890167412  -0.4480816947
C     -0.4881118057  -0.9651903219  -0.7510082323
C     -1.0696389324   0.1973203112   0.0784504603
C     -0.4106697483   1.4564038423  -0.4246909957
N      0.8761209082   1.4711971334  -0.1992620026
H      2.1549503361   0.1759194297   0.9225443712
H      1.5645005267  -1.7544266410  -0.7196045034
H     -1.0535786611  -1.5082738804  -1.5161644521
H     -2.1628686412   0.1293116895   0.1699532991
H     -0.9154135869   2.3324459750  -0.8510932709
C     -0.1609986891   0.0277528285   1.2810699649
H     -0.3486269872  -0.7534685803   2.0396800064
13
Frame written by nebterpolator, Thu Mar  3 04:41:48 2022
C      1.1668490235   0.1744198988   0.4363520875
C      0.8371196166  -0.9867657269  -0.4568003966
C     -0.4863244008  -0.9622840273  -0.7510987078
C     -1.0694352158   0.1965401846   0.0794095556
C     -0.4055913920   1.4590164402  -0.4248000916
N      0.8784452857   1.4711628610  -0.1992088611
H      2.1406219043   0.1680037047   0.9423794812
H      1.5722350454  -1.7326085966  -0.7593453841
H     -1.0528004797  -1.5234663051  -1.5002970144
H     -2.1619844311   0.1463540312   0.1760300227
H     -0.9108915695   2.3237553988  -0.8699266307
C     -0.1623795371   0.0245866702   1.2861432341
H     -0.3458638496  -0.7587145336   2.0411627054
13
Frame written by nebterpolator, Thu Mar  3 04:41:48 2022
C      1.1547025097   0.1685590094   0.4543467121
C      0.8385336232  -0.9851757539  -0.4655595299
C     -0.4842810137  -0.9603232101  -0.7511666368
C     -1.0695567345   0.1956601037   0.0805245232
C     -0.3999531301   1.4621849441  -0.4246669528
N      0.8794904254   1.4715397817  -0.1991829031
H      2.1261294643   0.1602321511   0.9614405610
H      1.5790407411  -1.7099797831  -0.7988137092
H     -1.0509665831  -1.5385781338  -1.4843391823
H     -2.1607728997   0.1632855067   0.1818873409
H     -0.9053134794   2.3150900987  -0.8883068330
C     -0.1638917346   0.0211669623   1.2915505241
H     -0.3431611887  -0.7636616768   2.0422860857
13
Frame written by nebterpolator, Thu Mar  3 04:41:48 2022
C      1.1424187023   0.1623764144   0.4722535089
C      0.8394656273  -0.9844994583  -0.4744137268
C     -0.4818444123  -0.9595629664  -0.7512233755
C     -1.0700257537   0.1946048209   0.0818862784
C     -0.3934969378   1.4660680002  -0.4242941722
N      0.8786716413   1.4725107766  -0.1992865995
H      2.1112835018   0.1527180760   0.9795397215
H      1.5845225907  -1.6864201346  -0.8379393401
H     -1.0477213650  -1.5534207827  -1.4683314089
H     -2.1590267026   0.1800838641   0.1875015395
H     -0.8982703765   2.3064156321  -0.9061728642
C     -0.1655218675   0.0173271425   1.2974964199
H     -0.3404546480  -0.7682013848   2.0429840190
13
Frame written by nebterpolator, Thu Mar  3 04:41:48 2022
C      1.1301430172   0.1561122674   0.4900870172
C      0.8403035126  -0.9840215976  -0.4832878800
C     -0.4793333536  -0.9591173654  -0.7512620357
C     -1.0706110112   0.1935135421   0.0832990461
C     -0.3869316600   1.4701140082  -0.4238456708
N      0.8775554523   1.4735732766  -0.1994020724
H      2.0963928069   0.1452224649   0.9973830121
H      1.5896822437  -1.6625687997  -0.8769328963
H     -1.0441218533  -1.5681721630  -1.4523503275
H     -2.1571737778   0.1968110085   0.1930561635
H     -0.8909375793   2.2977203499  -0.9238722942
C     -0.1672029852   0.0134355209   1.3035387408
H     -0.3377648123  -0.7726225128   2.0435891972
13
Frame written by nebterpolator, Thu Mar  3 04:41:48 2022
C      1.1178881981   0.1497835100   0.5078453086
C      0.8410762677  -0.9836897933  -0.4921764511
C     -0.4767717848  -0.9589245046  -0.7512812491
C     -1.0712978219   0.1923965751   0.0847483464
C     -0.3803129916   1.4742830019  -0.4233321458
N      0.8762625072   1.4746884064  -0.1995197850
H      2.0814817621   0.1377257464   1.0150195456
H      1.5945911380  -1.6384676416  -0.9158066189
H     -1.0402428180  -1.5828434925  -1.4364036226
H     -2.1552459823   0.2134691380   0.1985642803
H     -0.8834027309   2.2890023599  -0.9414275433
C     -0.1689315856   0.0095212469   1.3096439707
H     -0.3350941578  -0.7769445526   2.0441259643
