13   
Frame written by nebterpolator, Wed Mar  2 21:17:30 2022
C        1.5870652534    0.3115518464    0.1267216970
C        1.0215815176   -0.9083749137    0.2855610216
C       -0.4329636366   -1.0944262623    0.1727617238
C       -1.2410022657    0.2902820537    0.0321549352
C       -0.4009609007    1.4970703397    0.1630320294
N        0.8875236918    1.5238103250    0.1176442601
H        2.6680848805    0.4248334914    0.1289018472
H        1.6433408653   -1.7754195058    0.4940218413
H       -0.9035079651   -1.8892285098    0.7524279463
H       -2.2274361209    0.3356255424    0.4971265749
H       -0.9119776441    2.4430759432    0.3566101985
C       -1.0653034798   -0.6536244720   -1.0737404309
H       -0.6244441963   -0.5051758780   -2.0532236450
13   
Frame written by nebterpolator, Wed Mar  2 21:17:30 2022
C        1.5404890732    0.3057613477    0.0745491691
C        1.0494118373   -0.9908175749    0.3842247659
C       -0.2984922341   -1.3107796849    0.2704848058
C       -1.3550808199    0.4402545486   -0.0228593976
C       -0.4399427436    1.5244687508    0.2329637131
N        0.8719090635    1.4497924081    0.0835309599
H        2.6269440971    0.4269520624   -0.0436537027
H        1.7701705151   -1.7468302560    0.7171498137
H       -0.7957974432   -2.1553506462    0.7696481656
H       -2.3796701957    0.5010576895    0.3615520013
H       -0.8419635898    2.5167944118    0.4568339345
C       -1.0744836061   -0.4968044750   -1.1336246227
H       -0.6734939537   -0.4644985820   -2.1507996059
13   
Frame written by nebterpolator, Wed Mar  2 21:17:30 2022
C        1.5135590247    0.2781271816    0.0222178916
C        1.0930506707   -1.0456779033    0.5102448977
C       -0.1691660705   -1.5249436198    0.3290860542
C       -1.4543680943    0.5638918582   -0.1079253399
C       -0.4529846467    1.5379511842    0.2904141087
N        0.8465749804    1.4058372740    0.0365992941
H        2.5855810528    0.3948290562   -0.1902123293
H        1.8671454766   -1.6583104999    0.9628068612
H       -0.6618486123   -2.4070708918    0.7435065528
H       -2.5019325240    0.6619334320    0.1870420312
H       -0.7674765229    2.5427706169    0.5705349055
C       -1.0824884959   -0.3400442905   -1.1485139063
H       -0.8156462385   -0.4092933976   -2.2058010215
13   
Frame written by nebterpolator, Wed Mar  2 21:17:30 2022
C        1.4929427867    0.2064873144    0.0268265851
C        1.1631541059   -0.9968933005    0.6495879705
C       -0.0454619000   -1.7118902275    0.3024074546
C       -1.5392296317    0.6603972092   -0.1783815931
C       -0.4509304635    1.5260613315    0.3154193629
N        0.8330974447    1.3430270004    0.0081291581
H        2.5485379228    0.2982855963   -0.3008276480
H        1.9475268439   -1.4769498293    1.2078545194
H       -0.5025009428   -2.6346840611    0.6517575012
H       -2.5953168210    0.8220994102    0.0411955513
H       -0.6958483825    2.5335396558    0.6465683035
C       -1.1116973245   -0.2025269104   -1.1486593300
H       -1.0442736382   -0.3669531891   -2.2218778355
13   
Frame written by nebterpolator, Wed Mar  2 21:17:30 2022
C        1.4912503241    0.1985541670    0.0320442640
C        1.0968244164   -1.0188329401    0.7055205103
C        0.1969535484   -1.8708529899    0.2188672435
C       -1.6029063113    0.7480934344   -0.2092726235
C       -0.4346413029    1.5285313339    0.2928903621
N        0.8356698496    1.3290484887   -0.0522022554
H        2.5498633949    0.2515875652   -0.2882047900
H        1.8140398996   -1.3553834030    1.4485864588
H       -0.2050938362   -2.8392247682    0.5290857645
H       -2.6541321594    0.9734147434   -0.0109499228
H       -0.6434736378    2.5139241761    0.6897110184
C       -1.1695900353   -0.1097015006   -1.1558713205
H       -1.2747641501   -0.3491583071   -2.2002047094
13   
Frame written by nebterpolator, Wed Mar  2 21:17:30 2022
C        1.5302557420    0.2113883504    0.0621227428
C        0.9575519016   -0.9845430300    0.7719333039
C        0.4609236581   -1.9601832488    0.0897400776
C       -1.6590946953    0.7961717171   -0.2146846741
C       -0.4196930403    1.5371323598    0.2481334335
N        0.8834065224    1.3290733598   -0.1366770387
H        2.5774436661    0.1854795306   -0.2457860813
H        1.5754283395   -1.2516470422    1.6474282350
H        0.1205200717   -2.9766439762    0.3414740485
H       -2.6995662147    1.0551113529    0.0124239495
H       -0.6128120199    2.4893911699    0.7143941557
C       -1.2521286331   -0.0757149360   -1.1433607584
H       -1.4622352982   -0.3550156075   -2.1471413940
13   
Frame written by nebterpolator, Wed Mar  2 21:17:30 2022
C        1.6306921170    0.1571385700    0.0210485604
C        0.8787626226   -0.9762539233    0.7423730378
C        0.7115181658   -2.0191227873    0.0085953674
C       -1.7425018512    0.8720613804   -0.2437250177
C       -0.4495641421    1.5224817397    0.2159101067
N        0.9507841211    1.3297962750   -0.2147056429
H        2.6634321198    0.1554110409   -0.0957469358
H        1.2994896425   -1.1397878643    1.7730869562
H        0.4489117088   -3.0656412956    0.2129869051
H       -2.7693696478    1.1758066585   -0.0109515371
H       -0.6402693558    2.4290345534    0.7603787783
C       -1.3562615937   -0.0568192627   -1.1020042738
H       -1.6256239069   -0.3841050845   -2.0672463045
13   
Frame written by nebterpolator, Wed Mar  2 21:17:30 2022
C        1.4237322000    0.2079841126   -0.0140592681
C        0.9322095165   -1.1000149094    0.7276265915
C        0.8338557975   -2.1766483534    0.0138095838
C       -1.7372746979    1.0258711687   -0.3221245702
C       -0.3914323187    1.4556315692    0.2177375541
N        0.8233136167    1.3205885317   -0.1909805501
H        2.5996257233    0.2745365966   -0.0570677681
H        1.2182780903   -1.1494886058    1.7733458327
H        0.6205119069   -3.2095013127    0.2201955276
H       -2.7211982880    1.4454417012   -0.1274355688
H       -0.5414245340    2.3531655813    0.7944930448
C       -1.4040818796   -0.0335616906   -1.0389385473
H       -1.6561151330   -0.4140043894   -1.9966018619
13   
Frame written by nebterpolator, Wed Mar  2 21:17:30 2022
C        1.4356197517    0.2116338380   -0.0200808227
C        1.0158155863   -1.1242044850    0.6963855237
C        0.9386144867   -2.2641455482    0.0515352170
C       -1.7319463558    1.2249317376   -0.4864920477
C       -0.4436274583    1.3246316130    0.2419137213
N        0.7721163319    1.3037269193   -0.1769366016
H        2.5792345116    0.3163179736   -0.1083474163
H        1.0925317904   -1.1020928890    1.7659793397
H        0.7408757660   -3.2878667233    0.3115223151
H       -2.6665866776    1.7400297045   -0.3362037649
H       -0.5891790639    2.1170591020    0.9647610712
C       -1.5193596967    0.0345961689   -0.9890089180
H       -1.6241089724   -0.4946174115   -1.9150276168
13   
Frame written by nebterpolator, Wed Mar  2 21:17:30 2022
C        1.5433536320    0.2616903960    0.0045489641
C        1.0594873252   -1.0830774295    0.6628155589
C        0.9329979113   -2.2832044659    0.0500882027
C       -1.6556048093    1.3632912910   -0.6536594063
C       -0.4905596383    1.2553136887    0.1887932308
N        0.7964080829    1.3156653766   -0.1660223019
H        2.6124362519    0.3551397199   -0.1196254274
H        0.9796319984   -1.0525121947    1.7401551054
H        0.7547299162   -3.3099209240    0.3758423624
H       -2.5501071016    1.9580292312   -0.5629478470
H       -0.6835720326    1.7605098589    1.1880539698
C       -1.5684609563    0.0792901397   -0.9558802963
H       -1.7307405798   -0.6202146880   -1.7521621151
13   
Frame written by nebterpolator, Wed Mar  2 21:17:30 2022
C        1.5741236601    0.2570845200    0.0122791649
C        1.0472508717   -1.0725455261    0.6270287352
C        1.0575096320   -2.3016127902    0.0571014477
C       -1.5577116554    1.4579289849   -0.7696177263
C       -0.5476608092    1.1975622640    0.1884821593
N        0.8279614553    1.3154536504   -0.0863466406
H        2.6385302659    0.3448643887   -0.1101179186
H        0.8583764304   -1.0231608545    1.6997790608
H        0.8360297356   -3.3341831669    0.4105957474
H       -2.4017511484    2.1070866841   -0.8401010858
H       -0.8240339253    1.5788746547    1.2454353698
C       -1.5192387145    0.1507404175   -0.9938154188
H       -1.9893857980   -0.6780932266   -1.4407028952
13   
Frame written by nebterpolator, Wed Mar  2 21:17:30 2022
C        1.5539258235    0.2375312455    0.0367350845
C        1.0067933898   -1.0832451412    0.5909355403
C        1.2272506170   -2.2845507480    0.0444975535
C       -1.5490602988    1.4712823031   -0.8101896608
C       -0.6171322175    1.1924565374    0.2264087125
N        0.8209300886    1.3057020518   -0.0187824066
H        2.6220495326    0.3192163398   -0.0926438560
H        0.7452495699   -1.0483900219    1.6590771695
H        1.0165208777   -3.3482041635    0.3649634537
H       -2.1430361709    2.2191490848   -1.2131104672
H       -0.9096687082    1.5463699888    1.2442219886
C       -1.5906561705    0.1569226313   -0.8795272149
H       -2.1831663331   -0.6842401077   -1.1525858972
13   
Frame written by nebterpolator, Wed Mar  2 21:17:30 2022
C        1.5064723284    0.2150623829    0.1004052301
C        0.9638448891   -1.1089693070    0.5627786356
C        1.4208619881   -2.2528879243    0.0555778412
C       -1.5482703956    1.4694105249   -0.9059562653
C       -0.6718100142    1.1889171931    0.2399761063
N        0.7739658865    1.2763911371    0.0250924932
H        2.5805951527    0.2999479761   -0.0564469142
H        0.5926367728   -1.1144592292    1.6012768214
H        1.2712008659   -3.3291968568    0.2922679521
H       -1.8836913477    2.2795521365   -1.5151213238
H       -0.9634108402    1.5749584168    1.2229732470
C       -1.7054546822    0.1720135192   -0.7361516839
H       -2.3369406036   -0.6707399692   -0.8866721399
13   
Frame written by nebterpolator, Wed Mar  2 21:17:30 2022
C        1.4286561102    0.1909944413    0.2065054789
C        1.0124461204   -1.1539302897    0.5780847058
C        1.6251686399   -2.2336991753    0.0893536809
C       -1.5332338592    1.4816793370   -1.0119723727
C       -0.6766034382    1.1905026987    0.1965871642
N        0.6615383492    1.2065116735   -0.0045768843
H        2.5110298356    0.3285639058    0.0202043140
H        0.3895295491   -1.2401828789    1.4821895819
H        1.5576912956   -3.3033694859    0.2580001085
H       -1.7770712496    2.2604801207   -1.7214327689
H       -0.9353479031    1.6287094867    1.1592582124
C       -1.7889977052    0.2362340006   -0.6222962577
H       -2.4748057447   -0.5924938344   -0.6299049631
13   
Frame written by nebterpolator, Wed Mar  2 21:17:30 2022
C        1.3749560136    0.1652263009    0.2711828626
C        1.0153446177   -1.1924657458    0.6388507589
C        1.8133972221   -2.2128380104    0.3484619213
C       -1.5082022809    1.6068481328   -1.0341104675
C       -0.7577057711    1.0732307473    0.1488017255
N        0.5760875301    1.1263387122   -0.0259702896
H        2.4660000254    0.3421748932    0.1029293990
H        0.1951725566   -1.3156569896    1.3638619866
H        1.7980440613   -3.2781295546    0.5407866584
H       -1.5986190043    2.4704272958   -1.6798333061
H       -1.0503622343    1.3561309265    1.1604954457
C       -1.8408765747    0.3456117967   -0.8092871521
H       -2.4832361615   -0.4868985051   -1.0261695427
13   
Frame written by nebterpolator, Wed Mar  2 21:17:30 2022
C        1.3258175361    0.1275896979    0.3113405036
C        1.0060468530   -1.2233021336    0.6851441081
C        1.9294929215   -2.1694268972    0.5861076506
C       -1.4900517021    1.7147374155   -0.9984650723
C       -0.8393512786    0.9530885758    0.0784244739
N        0.5102465705    1.0506809613   -0.0396930743
H        2.4319780710    0.3410598555    0.1702747981
H        0.0853088819   -1.3906240018    1.2678978266
H        1.9513890023   -3.2255909564    0.8276509790
H       -1.4975110202    2.6926427747   -1.4618379210
H       -1.1933490515    1.0431391280    1.1121178864
C       -1.8309379798    0.4403649683   -1.0409157695
H       -2.3890788042   -0.3543593881   -1.4980463893
13   
Frame written by nebterpolator, Wed Mar  2 21:17:30 2022
C        1.2826135685    0.0827823021    0.3321837812
C        0.9973429122   -1.2514767832    0.7298796491
C        2.0005105390   -2.1106419280    0.8348107510
C       -1.4956272204    1.7971962000   -0.9263609847
C       -0.9024561990    0.8452163486   -0.0197094330
N        0.4605356979    0.9741779122   -0.0751456479
H        2.4041323812    0.3324543103    0.2265245657
H        0.0110015573   -1.4689788231    1.1716592418
H        2.0605561685   -3.1675163808    1.0693537581
H       -1.5061640115    2.8555657074   -1.1502991865
H       -1.3158962084    0.7218223590    0.9943219778
C       -1.7765689565    0.5507927014   -1.2562064982
H       -2.2199802289   -0.1613939258   -1.9310119742
13   
Frame written by nebterpolator, Wed Mar  2 21:17:30 2022
C        1.2489936341    0.0600282495    0.3989834675
C        0.9957619418   -1.2858333651    0.7062863531
C        2.0486324992   -2.0869046469    0.9531398543
C       -1.5129454617    1.8569439226   -0.8164040095
C       -0.9511289721    0.7261562922   -0.1753139889
N        0.4479769925    0.8929390921   -0.1459667064
H        2.3721773714    0.3475367684    0.3601706911
H       -0.0211346533   -1.5633646610    1.0376524075
H        2.1082941352   -3.0771828562    1.3839297100
H       -1.5512177432    2.9410245312   -0.8092373370
H       -1.4135392882    0.3927971773    0.7968456933
C       -1.7117500357    0.6906433072   -1.4245151247
H       -2.0601204201    0.1052161886   -2.2655710102
13   
Frame written by nebterpolator, Wed Mar  2 21:17:30 2022
C        1.2247836733    0.0437075244    0.4256036333
C        0.9943595320   -1.2986604007    0.7277215181
C        2.0610869789   -2.0681015464    1.1102041632
C       -1.5852230897    1.8611540701   -0.6978041154
C       -0.9385705602    0.6683264459   -0.3124586406
N        0.4609064263    0.8392570690   -0.2270872137
H        2.3471069933    0.3546327588    0.4545405262
H       -0.0345839725   -1.6433258538    0.8971680847
H        2.1129709729   -3.0215884887    1.6167165712
H       -1.7433296753    2.8967180341   -0.4516112400
H       -1.4183810127    0.0787929682    0.5119226055
C       -1.6216706343    0.8541269576   -1.5469741306
H       -1.8594556319    0.4349604615   -2.5079417618
13   
Frame written by nebterpolator, Wed Mar  2 21:17:30 2022
C        1.2664374687    0.0223709473    0.3594338388
C        1.0051424307   -1.2952847205    0.7925875830
C        1.9988611800   -2.0511716194    1.3052040590
C       -1.6833592405    1.8243456841   -0.5990709275
C       -0.9054423278    0.6381727170   -0.3969577016
N        0.4933767852    0.8525253142   -0.2381336685
H        2.3561693836    0.3445954201    0.4551162553
H       -0.0246609928   -1.6773237817    0.7886055962
H        2.0365250644   -3.0184489302    1.7862906647
H       -2.0273441352    2.7454052139   -0.1532044351
H       -1.3636697401   -0.1695097307    0.2065778155
C       -1.5186732039    1.0156822466   -1.6299624697
H       -1.6333626723    0.7686412394   -2.6764866102
13   
Frame written by nebterpolator, Wed Mar  2 21:17:30 2022
C        1.3212186772    0.0341113506    0.3292161356
C        1.0323203592   -1.3103370567    0.8711316753
C        1.9503385227   -2.0569015135    1.4558990274
C       -1.7934514633    1.7531557967   -0.5511215909
C       -0.8433116612    0.5828461395   -0.4762642182
N        0.5394152706    0.8648516470   -0.2531281693
H        2.3597176128    0.3519727175    0.4524064937
H        0.0137613030   -1.7001024996    0.7804929813
H        2.0061576504   -3.0342323694    1.9183763714
H       -2.2885431991    2.5181887989    0.0281005477
H       -1.2277192688   -0.3754943048   -0.1101399266
C       -1.5018532718    1.2037363595   -1.6838902702
H       -1.5680505315    1.1682049343   -2.7610790572
