13   
Frame written by nebterpolator, Tue Mar  1 23:12:19 2022
C        1.6724632058    0.3311160337   -0.3250581421
C        1.0799246500   -0.8827735733   -0.3043633466
C       -0.3513940272   -1.0536564506   -0.0024302983
C       -1.1382218189    0.3660142204    0.1145343891
C       -0.2937296476    1.5327570016   -0.2046341556
N        0.9889836982    1.5484623459   -0.3224042152
H        2.7439088975    0.4214526934   -0.4842405892
H        1.6596517633   -1.7760802000   -0.5235045788
H       -0.8555977654   -1.9047507362   -0.4640319070
H       -2.1712900106    0.4414158576   -0.2307127162
H       -0.8220975223    2.4664347263   -0.4127188969
C       -0.8868972542   -0.5249655330    1.2503662136
H       -1.6257041688   -0.9654263854    1.9091982433
13   
Frame written by nebterpolator, Tue Mar  1 23:12:19 2022
C        1.6709584521    0.3322241485   -0.2996951059
C        1.0598524369   -0.8882679576   -0.3400006968
C       -0.3425080105   -1.0388047069   -0.0757738285
C       -1.1342867133    0.3416078066    0.1028913793
C       -0.3084522734    1.5111630188   -0.2179220160
N        0.9967713359    1.5340436285   -0.3125577648
H        2.7554399586    0.4153890846   -0.4159850449
H        1.6518290508   -1.7908301086   -0.5522303707
H       -0.8700071035   -1.9032209474   -0.5072429576
H       -2.1779077544    0.3977035337   -0.2449898329
H       -0.8409358291    2.4559426744   -0.4051102365
C       -0.8847346299   -0.4227623154    1.3030881215
H       -1.5760189203   -0.9441878592    1.9655283537
13   
Frame written by nebterpolator, Tue Mar  1 23:12:19 2022
C        1.6686040557    0.3249173866   -0.2806329437
C        1.0569694689   -0.8921801404   -0.3711121452
C       -0.3504367963   -1.0231109052   -0.1501171309
C       -1.1339394881    0.3182869235    0.0959848924
C       -0.3196990030    1.4904040503   -0.2369627375
N        0.9918435913    1.5177413553   -0.3077700228
H        2.7590940305    0.4081905716   -0.3493790527
H        1.6552537583   -1.7966541400   -0.5657640173
H       -0.8971973509   -1.8910474437   -0.5550351541
H       -2.1807202233    0.3559632519   -0.2520621464
H       -0.8484473281    2.4448860595   -0.4011583954
C       -0.8860183530   -0.3164101876    1.3682562062
H       -1.5153063619   -0.9409867817    2.0057526473
13   
Frame written by nebterpolator, Tue Mar  1 23:12:19 2022
C        1.6588361789    0.3190836356   -0.2605949619
C        1.0460280645   -0.8991272472   -0.3892115046
C       -0.3576136451   -1.0134601676   -0.2206680291
C       -1.1378434737    0.3025223440    0.0897728885
C       -0.3294376161    1.4726119166   -0.2560664030
N        0.9845937357    1.5000383091   -0.2988280385
H        2.7513703046    0.4023922921   -0.2863627004
H        1.6518873369   -1.8028480437   -0.5671475458
H       -0.9210813858   -1.8760329147   -0.6134772490
H       -2.1836326419    0.3182355408   -0.2608871289
H       -0.8484277704    2.4365750881   -0.4041877322
C       -0.8875785450   -0.2180420140    1.4275407757
H       -1.4271005427   -0.9419487391    2.0401176293
13   
Frame written by nebterpolator, Tue Mar  1 23:12:19 2022
C        1.6435827511    0.3155052077   -0.2382237487
C        1.0245275418   -0.9108642713   -0.4006415621
C       -0.3615322049   -1.0138751595   -0.2845898819
C       -1.1450415248    0.2876141107    0.0821600163
C       -0.3370075677    1.4624534828   -0.2656370364
N        0.9776971432    1.4868467451   -0.2787659382
H        2.7376875922    0.3965138984   -0.2235341651
H        1.6407556160   -1.8122514696   -0.5656193183
H       -0.9404368335   -1.8645651753   -0.6781681624
H       -2.1887238981    0.2781395190   -0.2723011856
H       -0.8489316002    2.4312887415   -0.4130780837
C       -0.8856145428   -0.1332296318    1.4597381954
H       -1.3169624722   -0.9235759977    2.0786608706
13   
Frame written by nebterpolator, Tue Mar  1 23:12:19 2022
C        1.6278055731    0.3052327139   -0.2164668666
C        1.0080639538   -0.9233178657   -0.4103354821
C       -0.3687471837   -1.0209485031   -0.3422263188
C       -1.1540515401    0.2707652750    0.0756602172
C       -0.3472521208    1.4588402893   -0.2675980781
N        0.9671185156    1.4782469266   -0.2551899984
H        2.7216830981    0.3847654112   -0.1600392479
H        1.6344960608   -1.8211901761   -0.5601521761
H       -0.9628207315   -1.8532242764   -0.7470963082
H       -2.1961505808    0.2313354219   -0.2784431407
H       -0.8548572943    2.4290735057   -0.4188945016
C       -0.8717493033   -0.0598966877    1.4666949554
H       -1.2035384469   -0.8796820347    2.1140869459
13   
Frame written by nebterpolator, Tue Mar  1 23:12:19 2022
C        1.6118402670    0.2874449748   -0.1945881495
C        0.9976142434   -0.9360670023   -0.4169762913
C       -0.3768220688   -1.0313681011   -0.3948402003
C       -1.1628123834    0.2565355149    0.0724077787
C       -0.3627356668    1.4584164407   -0.2687245014
N        0.9513412929    1.4720638810   -0.2352583732
H        2.7035546806    0.3669610519   -0.0971195115
H        1.6332820953   -1.8300033241   -0.5483801342
H       -0.9870833516   -1.8384264166   -0.8212532688
H       -2.2046672481    0.1801897097   -0.2740783707
H       -0.8658112444    2.4297814164   -0.4204258373
C       -0.8406529626    0.0062741120    1.4611853029
H       -1.0970476534   -0.8218022573    2.1380515566
13   
Frame written by nebterpolator, Tue Mar  1 23:12:19 2022
C        1.5960306383    0.2701028464   -0.1710614559
C        0.9884711286   -0.9519494889   -0.4205824875
C       -0.3864926856   -1.0452177176   -0.4421213125
C       -1.1712654411    0.2462256763    0.0724818240
C       -0.3803421882    1.4585597401   -0.2728452993
N        0.9337876582    1.4667497303   -0.2189086325
H        2.6834941683    0.3503422820   -0.0345148644
H        1.6326083138   -1.8410158996   -0.5317923423
H       -1.0135710649   -1.8195570828   -0.8987802117
H       -2.2133095313    0.1282225082   -0.2593708964
H       -0.8776034272    2.4320260025   -0.4232118923
C       -0.7967278452    0.0674752373    1.4504733830
H       -0.9950797239   -0.7619638342    2.1502341876
13   
Frame written by nebterpolator, Tue Mar  1 23:12:19 2022
C        1.5787096389    0.2566878370   -0.1459339018
C        0.9738292597   -0.9716134623   -0.4211553453
C       -0.3934887452   -1.0633400524   -0.4839472379
C       -1.1789469374    0.2395570054    0.0752177110
C       -0.3982858554    1.4593668129   -0.2792384349
N        0.9171261094    1.4621667764   -0.2042578461
H        2.6608926618    0.3363752805    0.0273630069
H        1.6271173715   -1.8550727940   -0.5128836457
H       -1.0364204731   -1.7983338392   -0.9786354976
H       -2.2205633109    0.0763784669   -0.2374395222
H       -0.8887736721    2.4355522073   -0.4291825646
C       -0.7459009574    0.1255099217    1.4364499950
H       -0.8952950897   -0.7032341602    2.1536432833
13   
Frame written by nebterpolator, Tue Mar  1 23:12:19 2022
C        1.5596907188    0.2449667691   -0.1201621378
C        0.9563639421   -0.9920220627   -0.4185540207
C       -0.4005594656   -1.0838829428   -0.5206195892
C       -1.1864078430    0.2356333557    0.0801257494
C       -0.4170822797    1.4606067708   -0.2876644039
N        0.9027828507    1.4571882331   -0.1920582008
H        2.6356319776    0.3229385410    0.0888709117
H        1.6190525915   -1.8695693919   -0.4918286281
H       -1.0563740294   -1.7742102805   -1.0591202471
H       -2.2263779570    0.0254862438   -0.2089711456
H       -0.8995620554    2.4401498035   -0.4380974883
C       -0.6908585217    0.1803199690    1.4186222493
H       -0.7962999288   -0.6476050081    2.1494569512
13   
Frame written by nebterpolator, Tue Mar  1 23:12:19 2022
C        1.5385984884    0.2335935122   -0.0933477137
C        0.9394735414   -1.0119472127   -0.4126769520
C       -0.4122133685   -1.1048839601   -0.5527468616
C       -1.1933967101    0.2338851469    0.0864285497
C       -0.4356159141    1.4622534702   -0.2991751424
N        0.8893651441    1.4517617254   -0.1839440925
H        2.6069635824    0.3101042017    0.1516446842
H        1.6109238545   -1.8832095773   -0.4684210223
H       -1.0766153544   -1.7468446878   -1.1376531284
H       -2.2307686541   -0.0219648455   -0.1737839245
H       -0.9088942753    2.4457963753   -0.4508564443
C       -0.6315826696    0.2305636830    1.3959747718
H       -0.6962376645   -0.5991078314    2.1385572761
13   
Frame written by nebterpolator, Tue Mar  1 23:12:19 2022
C        1.5141745027    0.2249995876   -0.0630706249
C        0.9193674231   -1.0328195361   -0.4045733307
C       -0.4269264737   -1.1260745668   -0.5810057201
C       -1.1984850729    0.2342244588    0.0932355399
C       -0.4521322387    1.4647467318   -0.3142923456
N        0.8765947186    1.4473086527   -0.1799462652
H        2.5736833384    0.2998651933    0.2176198473
H        1.5992103255   -1.8974112047   -0.4454970119
H       -1.0947574183   -1.7197890818   -1.2109226833
H       -2.2331612493   -0.0624535445   -0.1330722702
H       -0.9159875818    2.4522133179   -0.4693059208
C       -0.5676477649    0.2738173843    1.3700840573
H       -0.5939325086   -0.5586273926    2.1207467282
13   
Frame written by nebterpolator, Tue Mar  1 23:12:19 2022
C        1.4887187402    0.2292652076   -0.0254008184
C        0.8933404596   -1.0603156143   -0.3990647473
C       -0.4468561856   -1.1480981128   -0.6061436517
C       -1.1995884240    0.2359078483    0.0993607399
C       -0.4640160864    1.4665407711   -0.3344890573
N        0.8682819070    1.4453999702   -0.1788157488
H        2.5365575877    0.3015918472    0.2900483568
H        1.5800597413   -1.9167476746   -0.4282164551
H       -1.1142503083   -1.6986066476   -1.2719596702
H       -2.2334124457   -0.0896898455   -0.0876018647
H       -0.9201600380    2.4565519954   -0.4977548758
C       -0.4990528773    0.3062054468    1.3433407776
H       -0.4896220705   -0.5280051916    2.0966970151
13   
Frame written by nebterpolator, Tue Mar  1 23:12:19 2022
C        1.4571110115    0.2366288447    0.0221428342
C        0.8660141538   -1.0848315957   -0.3961545249
C       -0.4691007958   -1.1618918493   -0.6285352067
C       -1.1943298665    0.2389375345    0.1043502524
C       -0.4701583693    1.4683599052   -0.3600308506
N        0.8612537930    1.4459677558   -0.1847910539
H        2.4921155299    0.3058463950    0.3713953862
H        1.5579456444   -1.9335150819   -0.4229826337
H       -1.1335233455   -1.6860188179   -1.3150111865
H       -2.2313103537   -0.0981683949   -0.0377518560
H       -0.9215611720    2.4580788022   -0.5391400184
C       -0.4262310177    0.3231491329    1.3183946678
H       -0.3882252123   -0.5125426306    2.0681141900
13   
Frame written by nebterpolator, Tue Mar  1 23:12:19 2022
C        1.4064245743    0.2092263210    0.0770455303
C        0.8521092436   -1.0732615546   -0.3883917814
C       -0.4803476619   -1.1449716225   -0.6449534331
C       -1.1811687447    0.2426830595    0.1083429291
C       -0.4709812915    1.4736503573   -0.3868249561
N        0.8457603891    1.4452258676   -0.2102408092
H        2.4347858495    0.2759837519    0.4574032111
H        1.5510907680   -1.9191379473   -0.4435221657
H       -1.1392358339   -1.6803244888   -1.3338945876
H       -2.2273411373   -0.0832027783    0.0128415668
H       -0.9217673688    2.4578851890   -0.5923123210
C       -0.3569756439    0.3166627980    1.3017272048
H       -0.3123531425   -0.5204189527    2.0427796120
13   
Frame written by nebterpolator, Tue Mar  1 23:12:19 2022
C        1.3591442532    0.1972743533    0.1415508139
C        0.8427023862   -1.0623580852   -0.3939260191
C       -0.4909727601   -1.1205419282   -0.6545116831
C       -1.1599923181    0.2422024126    0.1104160456
C       -0.4619483120    1.4714074113   -0.4147530922
N        0.8431057741    1.4453274872   -0.2379784206
H        2.3805132811    0.2585114555    0.5455006471
H        1.5479105240   -1.8990591518   -0.4981675249
H       -1.1461527745   -1.6827039094   -1.3282913425
H       -2.2207785883   -0.0417442775    0.0626433277
H       -0.9218954696    2.4403638720   -0.6646629166
C       -0.2997166655    0.2915179599    1.2974902552
H       -0.2719193305   -0.5401975998    2.0346899095
13   
Frame written by nebterpolator, Tue Mar  1 23:12:19 2022
C        1.3171050588    0.1946931954    0.2064038109
C        0.8358862113   -1.0536968926   -0.4064131833
C       -0.4996282429   -1.0949107093   -0.6597240573
C       -1.1375568458    0.2390737416    0.1110043502
C       -0.4506444823    1.4643331672   -0.4396473976
N        0.8518608764    1.4444668123   -0.2629934317
H        2.3316068303    0.2472591403    0.6284690507
H        1.5468662153   -1.8748203098   -0.5689833487
H       -1.1500905327   -1.6869227694   -1.3135430893
H       -2.2121472177    0.0114154354    0.1094978771
H       -0.9247761061    2.4101607843   -0.7430676773
C       -0.2529064601    0.2604971823    1.2979232215
H       -0.2555753045   -0.5615487775    2.0410738747
13   
Frame written by nebterpolator, Tue Mar  1 23:12:19 2022
C        1.2757928787    0.1910252265    0.2681755946
C        0.8319261589   -1.0437186842   -0.4191960303
C       -0.5063262320   -1.0688625759   -0.6610009051
C       -1.1163131504    0.2340272494    0.1112824694
C       -0.4382455125    1.4565060246   -0.4607542697
N        0.8631390322    1.4430790427   -0.2865253047
H        2.2844425118    0.2338692604    0.7053428718
H        1.5492058826   -1.8432621472   -0.6451798710
H       -1.1494453383   -1.6891797695   -1.2975447780
H       -2.2013950190    0.0694964616    0.1542666779
H       -0.9282467625    2.3725664278   -0.8225958074
C       -0.2122377201    0.2258663049    1.2988851121
H       -0.2522967295   -0.5814128211    2.0548442403
13   
Frame written by nebterpolator, Tue Mar  1 23:12:19 2022
C        1.2336425166    0.1863523076    0.3275185220
C        0.8282886119   -1.0342984485   -0.4315598582
C       -0.5115848763   -1.0442907541   -0.6600472306
C       -1.0971286882    0.2270818977    0.1121233498
C       -0.4250618909    1.4495344097   -0.4790442263
N        0.8745596554    1.4419671030   -0.3082505133
H        2.2359917297    0.2187408532    0.7777972328
H        1.5514116559   -1.8056167559   -0.7215654240
H       -1.1438950254   -1.6879853679   -1.2840843376
H       -2.1871552299    0.1295051548    0.1976764319
H       -0.9300229069    2.3285108111   -0.9028549753
C       -0.1756107757    0.1885315702    1.3000807080
H       -0.2534347761   -0.5980327809    2.0722103208
13   
Frame written by nebterpolator, Tue Mar  1 23:12:19 2022
C        1.1892000998    0.1813124293    0.3859034682
C        0.8224143746   -1.0273833122   -0.4438269906
C       -0.5148297373   -1.0225604606   -0.6589432762
C       -1.0804127392    0.2184204156    0.1139933349
C       -0.4104203924    1.4447589231   -0.4960460618
N        0.8827894035    1.4425071539   -0.3281603954
H        2.1831310728    0.2031950159    0.8461725357
H        1.5492529836   -1.7631235883   -0.7943581020
H       -1.1316352582   -1.6824467970   -1.2751059396
H       -2.1674396471    0.1897930444    0.2390239683
H       -0.9262403514    2.2781803754   -0.9833635487
C       -0.1421752141    0.1490875912    1.3035885863
H       -0.2536345947   -0.6117407907    2.0911224209
13   
Frame written by nebterpolator, Tue Mar  1 23:12:19 2022
C        1.1402084052    0.1755049134    0.4448917613
C        0.8122076139   -1.0252423513   -0.4554839766
C       -0.5152931893   -1.0058040347   -0.6584513312
C       -1.0649362654    0.2081377606    0.1173216711
C       -0.3890246658    1.4432950532   -0.5131936245
N        0.8758998134    1.4475045746   -0.3470000053
H        2.1251132494    0.1904955930    0.9092635306
H        1.5408866563   -1.7187045516   -0.8606278038
H       -1.1122489463   -1.6730959986   -1.2705491609
H       -2.1424761581    0.2492542523    0.2768111026
H       -0.9099504129    2.2253369147   -1.0630576167
C       -0.1104057958    0.1067347597    1.3122066213
H       -0.2499803047   -0.6234168852    2.1078688321
