13   
Frame written by nebterpolator, Wed Mar  2 08:40:09 2022
C        1.6972674499    0.2878043459   -0.2177946769
C        1.0901877441   -0.9150443011   -0.1130997488
C       -0.3619637773   -1.0474732349    0.0889831806
C       -1.1404209314    0.3810042155   -0.0222865165
C       -0.2577572752    1.5000476524   -0.4006826261
N        1.0305620919    1.4987760097   -0.4081843795
H        2.7791612696    0.3569904953   -0.2962301170
H        1.6743188469   -1.8289541903   -0.1884936329
H       -0.8372409141   -1.9446421130   -0.3118803428
H       -2.1404458750    0.4184069429   -0.4587273145
H       -0.7545360329    2.4046352209   -0.7599226703
C       -0.9922145815   -0.3754667208    1.2230969943
H       -1.7869180147   -0.7360843224    1.8652218504
13   
Frame written by nebterpolator, Wed Mar  2 08:40:09 2022
C        1.7108171807    0.2925512915   -0.2233167698
C        1.1089649413   -0.9254530345   -0.1959155434
C       -0.3395327563   -1.0398251950    0.0054049955
C       -1.1223448139    0.3378652634   -0.0113204797
C       -0.2643404795    1.4732290095   -0.4057049369
N        1.0454135891    1.4795036662   -0.3890392114
H        2.7982380792    0.3757220624   -0.2213625424
H        1.7043649574   -1.8410430719   -0.2840802666
H       -0.8491109562   -1.9599566096   -0.2881487226
H       -2.1187626756    0.3579986367   -0.4700040536
H       -0.7714082253    2.3908844957   -0.7419904085
C       -1.0492500888   -0.2679655072    1.3016945406
H       -1.8530487521   -0.6735110072    1.9237833986
13   
Frame written by nebterpolator, Wed Mar  2 08:40:09 2022
C        1.7083248189    0.2898982238   -0.2241319246
C        1.1056009335   -0.9383557931   -0.2752440632
C       -0.2970916794   -1.0383237532   -0.0981529263
C       -1.0993721785    0.3026348894   -0.0016470308
C       -0.2687338752    1.4565370219   -0.4171976774
N        1.0423478000    1.4669387921   -0.3711253326
H        2.7962333866    0.3785682363   -0.1379946394
H        1.7165370479   -1.8492057801   -0.3791921749
H       -0.8223192248   -1.9841773641   -0.2516230483
H       -2.0897597669    0.3091834419   -0.4807463184
H       -0.7828327933    2.3817044183   -0.7229398774
C       -1.1049241463   -0.1649317237    1.3762497860
H       -1.9040103225   -0.6104706096    1.9837452274
13   
Frame written by nebterpolator, Wed Mar  2 08:40:09 2022
C        1.7035104887    0.2986284753   -0.2156436082
C        1.0968072123   -0.9606184587   -0.3627622429
C       -0.2670894446   -1.0511855968   -0.2079239133
C       -1.0786266610    0.2717541116    0.0095196515
C       -0.2709089843    1.4398717904   -0.4367127647
N        1.0382819053    1.4558675874   -0.3422251506
H        2.7800948989    0.3867973067   -0.0422293955
H        1.7262849932   -1.8571787587   -0.4806512514
H       -0.7839225311   -2.0109605197   -0.2041953962
H       -2.0637828910    0.2765234939   -0.4815562279
H       -0.7882671345    2.3696310062   -0.7190427248
C       -1.1490563804   -0.0846335645    1.4354477205
H       -1.9433254714   -0.5344968730    2.0479753035
13   
Frame written by nebterpolator, Wed Mar  2 08:40:09 2022
C        1.6948166152    0.2925286849   -0.2049647741
C        1.1049689607   -0.9675471522   -0.4560827679
C       -0.2510926228   -1.0671277896   -0.3051996720
C       -1.0624245007    0.2431644238    0.0261274655
C       -0.2760041752    1.4212093043   -0.4545759575
N        1.0281485644    1.4396946418   -0.3076389926
H        2.7544980171    0.3760338537    0.0574514001
H        1.7548075539   -1.8466583484   -0.5872819959
H       -0.7384344146   -2.0332482857   -0.1649069083
H       -2.0435084788    0.2506857441   -0.4730519656
H       -0.7937879513    2.3538685923   -0.7244473196
C       -1.1833500919   -0.0269762880    1.4843898693
H       -1.9886374759   -0.4356273810    2.1101816187
13   
Frame written by nebterpolator, Wed Mar  2 08:40:09 2022
C        1.6829842029    0.2606583793   -0.1996655493
C        1.1336121242   -0.9514333088   -0.5366175914
C       -0.2350527078   -1.0787244612   -0.3771176488
C       -1.0478262673    0.2157679760    0.0488637413
C       -0.2872549542    1.4015520146   -0.4602015960
N        1.0105290540    1.4180574384   -0.2779208225
H        2.7263766019    0.3372876211    0.1366886075
H        1.8036994955   -1.8128253946   -0.6902987658
H       -0.6843153849   -2.0522576022   -0.1476459394
H       -2.0248669509    0.2220986585   -0.4578317268
H       -0.8056367757    2.3360430809   -0.7201401461
C       -1.2160176060    0.0089978044    1.5271689188
H       -2.0562308320   -0.3052222065    2.1547185185
13   
Frame written by nebterpolator, Wed Mar  2 08:40:09 2022
C        1.6821051049    0.2533822093   -0.2017849104
C        1.1536426075   -0.9495772901   -0.6072523810
C       -0.2167184214   -1.1028791903   -0.4232713642
C       -1.0260347501    0.1834245839    0.0761506865
C       -0.2937970598    1.3777945126   -0.4506928427
N        1.0003606783    1.4028463082   -0.2468548632
H        2.7112482365    0.3218978498    0.1807099907
H        1.8417157845   -1.7914896191   -0.7786327293
H       -0.6323514884   -2.0808850292   -0.1427353031
H       -2.0046838211    0.1831899858   -0.4286575987
H       -0.8204244445    2.3114835042   -0.6970498817
C       -1.2508661826    0.0215018656    1.5591952639
H       -2.1441962437   -0.1306896908    2.1608759331
13   
Frame written by nebterpolator, Wed Mar  2 08:40:09 2022
C        1.6955911869    0.2522607815   -0.2185593464
C        1.1816880372   -0.9460973762   -0.6554709789
C       -0.2082391840   -1.1215226155   -0.4327433202
C       -1.0020246454    0.1469375401    0.1031776536
C       -0.2955846345    1.3555356753   -0.4217859677
N        1.0001310350    1.3940403658   -0.2310303327
H        2.7213281641    0.3204351246    0.1737075240
H        1.8768340091   -1.7773511339   -0.8299354599
H       -0.5986344451   -2.1056543663   -0.1345234197
H       -1.9954830636    0.1254661700   -0.3891805929
H       -0.8358376368    2.2891579209   -0.6380288654
C       -1.3032495460    0.0095190388    1.5657378033
H       -2.2365192770    0.0572728749    2.1086353028
13   
Frame written by nebterpolator, Wed Mar  2 08:40:09 2022
C        1.7085229803    0.2636071215   -0.2379986988
C        1.1743857733   -0.9552970255   -0.6523271931
C       -0.1690201487   -1.1327152534   -0.4175410992
C       -0.9658543455    0.1178533310    0.1275955596
C       -0.2900942235    1.3429964564   -0.3740173202
N        1.0102427944    1.3967120701   -0.2267818797
H        2.7487126183    0.3361992237    0.1137851288
H        1.8720238509   -1.7840560693   -0.8522486371
H       -0.5592315468   -2.1254629708   -0.1349823926
H       -2.0079524807    0.0504792670   -0.3711425720
H       -0.8486626710    2.2737934448   -0.5588095617
C       -1.3672116251   -0.0154340253    1.5592683028
H       -2.3058609758    0.2313244298    2.0252003632
13   
Frame written by nebterpolator, Wed Mar  2 08:40:09 2022
C        1.7250206683    0.2702670224   -0.2511807072
C        1.1838884567   -0.9536807553   -0.6432618878
C       -0.1553939822   -1.1324536801   -0.4014063949
C       -0.9384670481    0.0788216792    0.1511137492
C       -0.2799016945    1.3316608432   -0.3216425233
N        1.0232104076    1.3986412777   -0.2227155473
H        2.7763875995    0.3496072795    0.0605333046
H        1.8778302035   -1.7839287807   -0.8569237121
H       -0.5519614729   -2.1338278739   -0.1568588116
H       -2.0480798796   -0.0332303097   -0.3623012943
H       -0.8540936251    2.2583677048   -0.4872863919
C       -1.4430289857   -0.0667403789    1.5422654946
H       -2.3154106473    0.4164959717    1.9496647220
13   
Frame written by nebterpolator, Wed Mar  2 08:40:09 2022
C        1.7422519376    0.2793253666   -0.2569849784
C        1.1937646852   -0.9556959881   -0.6219889230
C       -0.1443016998   -1.1341108767   -0.3795136250
C       -0.9204802927    0.0425777716    0.1732758550
C       -0.2660900799    1.3229028812   -0.2628820980
N        1.0388747277    1.3997880160   -0.2147206028
H        2.8044173341    0.3673969108    0.0035069947
H        1.8824002321   -1.7868855001   -0.8511059354
H       -0.5536800665   -2.1400526192   -0.1854623759
H       -2.1112099788   -0.1079121338   -0.3626152049
H       -0.8519374694    2.2443244100   -0.4264100144
C       -1.5383930637   -0.1185454570    1.4990252103
H       -2.2756162659    0.5868872188    1.8858756977
13   
Frame written by nebterpolator, Wed Mar  2 08:40:09 2022
C        1.7643843155    0.2915207235   -0.2698620918
C        1.2053405135   -0.9643191739   -0.5909804697
C       -0.1271723454   -1.1427461435   -0.3364241789
C       -0.9038217904    0.0229411953    0.1977291531
C       -0.2464801462    1.3173790369   -0.1967062659
N        1.0591727029    1.4020737030   -0.2101071174
H        2.8377355623    0.3916493685   -0.0811275172
H        1.8860350086   -1.7970390214   -0.8342269716
H       -0.5496503221   -2.1473165455   -0.1834161211
H       -2.1904801738   -0.1744377942   -0.3586114484
H       -0.8403901232    2.2349941042   -0.3585849687
C       -1.6440763587   -0.1386322966    1.4157111338
H       -2.2505968430    0.7039328438    1.8066068636
13   
Frame written by nebterpolator, Wed Mar  2 08:40:09 2022
C        1.7869513078    0.2980162476   -0.2931227922
C        1.2216922675   -0.9693476437   -0.5544257746
C       -0.1056216175   -1.1474341180   -0.2814362205
C       -0.8825524387    0.0178250317    0.2236952870
C       -0.2235941562    1.3145924942   -0.1317418106
N        1.0795542875    1.4052120858   -0.2130608810
H        2.8690336896    0.4106807035   -0.1859139508
H        1.8921548732   -1.8067094769   -0.8091963439
H       -0.5399740603   -2.1497501238   -0.1584831453
H       -2.2688683486   -0.2476506706   -0.3397561911
H       -0.8234523264    2.2309618287   -0.2824087016
C       -1.7301657147   -0.1312794759    1.3170700165
H       -2.2751577633    0.7748831174    1.7087805081
13   
Frame written by nebterpolator, Wed Mar  2 08:40:09 2022
C        1.8087897748    0.3036903660   -0.3197348432
C        1.2393177071   -0.9725681943   -0.5188508538
C       -0.0832805635   -1.1470128645   -0.2270811627
C       -0.8562009850    0.0204282280    0.2462111801
C       -0.1977901593    1.3118580532   -0.0748722719
N        1.1004300303    1.4088261081   -0.2164118367
H        2.8944852869    0.4262133149   -0.2930075011
H        1.8985840695   -1.8165917310   -0.7803982557
H       -0.5300296154   -2.1466301184   -0.1292763991
H       -2.3482957010   -0.3324518756   -0.3053458628
H       -0.8021899132    2.2290767268   -0.2065432958
C       -1.8027565831   -0.1096134362    1.2240408712
H       -2.3210633481    0.8247754228    1.6012702315
13   
Frame written by nebterpolator, Wed Mar  2 08:40:09 2022
C        1.8285629985    0.3058472696   -0.3467496891
C        1.2579527054   -0.9723983669   -0.4866076388
C       -0.0609075137   -1.1416993836   -0.1763000459
C       -0.8284070202    0.0279942196    0.2647281218
C       -0.1713878723    1.3100134219   -0.0264976620
N        1.1205228059    1.4129481266   -0.2175541187
H        2.9133238008    0.4348065094   -0.3947957826
H        1.9060292190   -1.8244238244   -0.7510033620
H       -0.5188755688   -2.1390576206   -0.0983285424
H       -2.4256284137   -0.4281590708   -0.2494347088
H       -0.7782653044    2.2292500484   -0.1361098059
C       -1.8666391596   -0.0792364473    1.1345035007
H       -2.3762806771    0.8641151179    1.4841497338
13   
Frame written by nebterpolator, Wed Mar  2 08:40:09 2022
C        1.8441495806    0.3014733766   -0.3732418076
C        1.2775166684   -0.9667756703   -0.4580136491
C       -0.0397988653   -1.1318253946   -0.1303423934
C       -0.8045556267    0.0375550780    0.2788569646
C       -0.1473709578    1.3102560149    0.0141691678
N        1.1380863442    1.4164636515   -0.2178135639
H        2.9256984618    0.4340372777   -0.4870616942
H        1.9158932289   -1.8277942324   -0.7215819619
H       -0.5053078570   -2.1287177750   -0.0644714495
H       -2.4929023374   -0.5300994449   -0.1670534015
H       -0.7535954727    2.2324176394   -0.0725935484
C       -1.9215616625   -0.0459814078    1.0427518499
H       -2.4362515045    0.8989908869    1.3563954872
13   
Frame written by nebterpolator, Wed Mar  2 08:40:09 2022
C        1.8581912021    0.3020375677   -0.3977801781
C        1.2927918630   -0.9651058266   -0.4356723284
C       -0.0230061259   -1.1230421652   -0.0923742026
C       -0.7857177328    0.0459184145    0.2840988120
C       -0.1251599926    1.3116863382    0.0421292320
N        1.1555421513    1.4211754520   -0.2186034369
H        2.9341924452    0.4355606459   -0.5644539078
H        1.9241290709   -1.8339546111   -0.6908059102
H       -0.4924164340   -2.1188127326   -0.0261836217
H       -2.5469066537   -0.6319941128   -0.0511454169
H       -0.7276639662    2.2376076782   -0.0156909829
C       -1.9681951545   -0.0125814084    0.9484928153
H       -2.4957806729    0.9315047602    1.2179891263
13   
Frame written by nebterpolator, Wed Mar  2 08:40:09 2022
C        1.8698497790    0.3048706365   -0.4214669760
C        1.3051620615   -0.9661026663   -0.4165118714
C       -0.0102441363   -1.1152125261   -0.0624914891
C       -0.7734045977    0.0528154633    0.2761841679
C       -0.1070672227    1.3141989280    0.0555217804
N        1.1700334995    1.4266304850   -0.2255916731
H        2.9392775977    0.4376488429   -0.6264653913
H        1.9323713810   -1.8410891410   -0.6552068813
H       -0.4797208408   -2.1090634187    0.0155438532
H       -2.5833019501   -0.7236663854    0.0968668645
H       -0.7018444699    2.2440178775    0.0382566296
C       -2.0078421395    0.0168330674    0.8530832305
H       -2.5532689616    0.9581188368    1.0722777561
13   
Frame written by nebterpolator, Wed Mar  2 08:40:09 2022
C        1.8790746791    0.3070886408   -0.4448388795
C        1.3169883674   -0.9672555781   -0.3968403597
C       -0.0001393139   -1.1070274785   -0.0392431390
C       -0.7664296336    0.0597098919    0.2544053104
C       -0.0937416806    1.3169173834    0.0555658643
N        1.1803524349    1.4319049487   -0.2417252792
H        2.9423122221    0.4381764319   -0.6759588754
H        1.9423450697   -1.8469347836   -0.6120952738
H       -0.4675464119   -2.0984413117    0.0567623479
H       -2.6049903363   -0.7988942327    0.2697147335
H       -0.6769529194    2.2496828010    0.0912365725
C       -2.0440948948    0.0399178512    0.7557202572
H       -2.6071775828    0.9751554357    0.9272967208
13   
Frame written by nebterpolator, Wed Mar  2 08:40:09 2022
C        1.8888932647    0.3085931689   -0.4654009093
C        1.3306258692   -0.9680268361   -0.3735342438
C        0.0076425367   -1.0980685897   -0.0217089739
C       -0.7638529574    0.0687715345    0.2240733282
C       -0.0844707346    1.3198736713    0.0432102518
N        1.1889295417    1.4368652156   -0.2673669658
H        2.9463905060    0.4371308082   -0.7141671496
H        1.9543698699   -1.8505983441   -0.5607755270
H       -0.4576854460   -2.0856826596    0.0890707189
H       -2.6207272200   -0.8554555587    0.4650331375
H       -0.6533565305    2.2536952794    0.1359220304
C       -2.0820486661    0.0533534725    0.6510452345
H       -2.6547100335    0.9795488377    0.7945990681
13   
Frame written by nebterpolator, Wed Mar  2 08:40:09 2022
C        1.9060500046    0.3097202117   -0.4823097842
C        1.3505745745   -0.9696948104   -0.3441303683
C        0.0139369398   -1.0885533981   -0.0043043231
C       -0.7663525087    0.0848176594    0.1959094288
C       -0.0774162012    1.3251578443    0.0227024597
N        1.2029906089    1.4427300352   -0.3013406052
H        2.9539218484    0.4337908923   -0.7476162453
H        1.9673264112   -1.8500289230   -0.5017877668
H       -0.4479806321   -2.0659613478    0.1125956274
H       -2.6519579055   -0.8904458554    0.6716292342
H       -0.6285534463    2.2555383669    0.1626147648
C       -2.1279651279    0.0491834846    0.5375697469
H       -2.6945745656    0.9637458404    0.6784678311
