13
comment
C     0.00000  0.00000  0.00000
C     0.00000  0.00000  0.00000
C     0.00000  0.00000  0.00000
C     0.00000  0.00000  0.00000
C     0.00000  0.00000  0.00000
N     0.00000  0.00000  0.00000
H     0.00000  0.00000  0.00000
H     0.00000  0.00000  0.00000
H     0.00000  0.00000  0.00000
H     0.00000  0.00000  0.00000
H     0.00000  0.00000  0.00000
C     0.00000  0.00000 -6.00000
H     0.00000  0.00000 -6.00000
