13   
Frame written by nebterpolator, Wed Mar  2 17:00:57 2022
C        1.6801790246    0.3941026087   -0.1783820193
C        1.1262118113   -0.8348490310   -0.2685289378
C       -0.3162841307   -1.0621848678   -0.0823204238
C       -1.1557279371    0.3278757744    0.0469936080
C       -0.3269541053    1.5324844040   -0.1484785026
N        0.9598677316    1.5898455975   -0.1662576803
H        2.7570140642    0.5227856985   -0.2501939659
H        1.7478113132   -1.6980287218   -0.4937562742
H       -0.7575702086   -1.9017382680   -0.6224630194
H       -2.1622104709    0.3916870516   -0.3711500977
H       -0.8676481845    2.4600622154   -0.3521833492
C       -0.9589916683   -0.6131773555    1.1517287765
H       -1.7256972399   -1.1088651055    1.7349918851
13   
Frame written by nebterpolator, Wed Mar  2 17:00:57 2022
C        1.6668697416    0.3916673811   -0.1690891286
C        1.1027504000   -0.8445571423   -0.2771345752
C       -0.3168923043   -1.0635562793   -0.1231632759
C       -1.1692414075    0.3188194268    0.0267754596
C       -0.3481818912    1.5156817843   -0.1648575697
N        0.9557284201    1.5749394885   -0.1551108094
H        2.7522753362    0.5128575473   -0.2030235611
H        1.7433479138   -1.7175281961   -0.4434749004
H       -0.7963481654   -1.8726293219   -0.6939435632
H       -2.1897194882    0.3494530659   -0.3789054708
H       -0.8732380877    2.4649460913   -0.3315181180
C       -0.8947562664   -0.5464275117    1.1570577256
H       -1.6325942008   -1.0836663338    1.7563877871
13   
Frame written by nebterpolator, Wed Mar  2 17:00:57 2022
C        1.6519437866    0.3841152743   -0.1603222554
C        1.0819599341   -0.8556695491   -0.2838152074
C       -0.3181863877   -1.0691550275   -0.1651720448
C       -1.1836391654    0.3096128270    0.0088485695
C       -0.3667689002    1.5029939257   -0.1809204557
N        0.9434335265    1.5621485323   -0.1460440840
H        2.7432098911    0.5003117462   -0.1539589833
H        1.7381755976   -1.7328079205   -0.3927000776
H       -0.8320094522   -1.8408118461   -0.7658629189
H       -2.2150378883    0.3066632012   -0.3797305590
H       -0.8746911612    2.4702875238   -0.3145346219
C       -0.8319365225   -0.4795979529    1.1618647621
H       -1.5364532583   -1.0580907344    1.7723478763
13   
Frame written by nebterpolator, Wed Mar  2 17:00:57 2022
C        1.6376748629    0.3733235985   -0.1511440563
C        1.0669568135   -0.8684345915   -0.2885031690
C       -0.3240864437   -1.0792003939   -0.2080456061
C       -1.1987547450    0.3002334551   -0.0055969230
C       -0.3840493425    1.4937055107   -0.1963528857
N        0.9274335758    1.5505119526   -0.1390614936
H        2.7300489163    0.4870319380   -0.1016405442
H        1.7340995356   -1.7442926699   -0.3441344796
H       -0.8673958301   -1.8071727348   -0.8386241526
H       -2.2383720798    0.2635577572   -0.3717477368
H       -0.8739332476    2.4750409909   -0.3036998716
C       -0.7716699615   -0.4130234486    1.1652854956
H       -1.4379520540   -1.0312813644    1.7832654229
13   
Frame written by nebterpolator, Wed Mar  2 17:00:57 2022
C        1.6240145817    0.3625834937   -0.1397314175
C        1.0539095435   -0.8838440080   -0.2912767668
C       -0.3333304796   -1.0932464511   -0.2521872883
C       -1.2127515539    0.2912758860   -0.0162455680
C       -0.4004027947    1.4875526236   -0.2113543254
N        0.9111422988    1.5403332175   -0.1332472655
H        2.7136447191    0.4747642745   -0.0457845841
H        1.7286423564   -1.7552136600   -0.2998388629
H       -0.9005693446   -1.7739467875   -0.9131567164
H       -2.2590022672    0.2206059266   -0.3550796223
H       -0.8734493797    2.4794142651   -0.3004366167
C       -0.7136962171   -0.3477067394    1.1667402872
H       -1.3381514627   -1.0025720409    1.7915987466
13   
Frame written by nebterpolator, Wed Mar  2 17:00:57 2022
C        1.6094707458    0.3530118413   -0.1250969685
C        1.0384051873   -0.9016564611   -0.2921791497
C       -0.3431883121   -1.1097536833   -0.2979429795
C       -1.2238153764    0.2833121440   -0.0233998650
C       -0.4157222517    1.4844719487   -0.2265103386
N        0.8955707326    1.5321560881   -0.1282622236
H        2.6944886216    0.4631834007    0.0132930616
H        1.7190916266   -1.7676045705   -0.2603491244
H       -0.9283289134   -1.7425232200   -0.9895706763
H       -2.2759390668    0.1781477493   -0.3307826332
H       -0.8748650873    2.4842351453   -0.3045673746
C       -0.6570915973   -0.2846368700    1.1661524671
H       -1.2380763090   -0.9723435123    1.7992158046
13   
Frame written by nebterpolator, Wed Mar  2 17:00:57 2022
C        1.5938680745    0.3438983073   -0.1070394103
C        1.0219883653   -0.9202296077   -0.2915557069
C       -0.3556189342   -1.1267451783   -0.3454155939
C       -1.2315274157    0.2762944772   -0.0272641662
C       -0.4302458061    1.4840306635   -0.2428107049
N        0.8815428098    1.5256681727   -0.1247791334
H        2.6724304860    0.4515255871    0.0761454685
H        1.7067565824   -1.7807087656   -0.2260350817
H       -0.9518081660   -1.7132159110   -1.0668072746
H       -2.2885299196    0.1367317656   -0.2989068538
H       -0.8787539262    2.4894752183   -0.3159643709
C       -0.6017831353   -0.2252492000    1.1637952535
H       -1.1383190149   -0.9414755291    1.8066375748
13   
Frame written by nebterpolator, Wed Mar  2 17:00:57 2022
C        1.5769869349    0.3353737805   -0.0854912057
C        1.0049760416   -0.9386521395   -0.2897684047
C       -0.3715564546   -1.1426472485   -0.3948318608
C       -1.2353846756    0.2702796019   -0.0282109273
C       -0.4438598483    1.4859524047   -0.2610440723
N        0.8696236090    1.5208878220   -0.1231896833
H        2.6469430898    0.4396841284    0.1430128112
H        1.6919336948   -1.7941601227   -0.1968979260
H       -0.9717746790   -1.6868320325   -1.1437157751
H       -2.2959364587    0.0973257898   -0.2599129106
H       -0.8851162385    2.4949629981   -0.3344965539
C       -0.5474409235   -0.1710374439    1.1604152240
H       -1.0393940918   -0.9111375383    1.8141312845
13   
Frame written by nebterpolator, Wed Mar  2 17:00:57 2022
C        1.5602706604    0.3317212115   -0.0607053264
C        0.9879299155   -0.9595166457   -0.2879028445
C       -0.3932064719   -1.1575466040   -0.4464682040
C       -1.2351221233    0.2649226509   -0.0266493382
C       -0.4554636967    1.4890200831   -0.2819398459
N        0.8607025365    1.5179076510   -0.1227707662
H        2.6183346033    0.4320797670    0.2136524954
H        1.6748079522   -1.8097522169   -0.1722083985
H       -0.9915724622   -1.6636532291   -1.2192081869
H       -2.2978258922    0.0618791234   -0.2144767660
H       -0.8928048820    2.4996135776   -0.3606359434
C       -0.4939749270   -0.1237774233    1.1571746805
H       -0.9420752128   -0.8828979456    1.8221384442
13   
Frame written by nebterpolator, Wed Mar  2 17:00:57 2022
C        1.5426379100    0.3337569805   -0.0328514605
C        0.9691990980   -0.9834814645   -0.2860497461
C       -0.4185368900   -1.1695445119   -0.5001425334
C       -1.2297948853    0.2605666462   -0.0229372141
C       -0.4644992876    1.4929298891   -0.3054247582
N        0.8542561694    1.5170181730   -0.1235043808
H        2.5857228173    0.4292877850    0.2871748578
H        1.6539511229   -1.8283888442   -0.1515532659
H       -1.0101477141   -1.6441651927   -1.2921857516
H       -2.2933035257    0.0318001639   -0.1640834306
H       -0.9013550363    2.5030450129   -0.3940184850
C       -0.4409732997   -0.0847058997    1.1547907109
H       -0.8471564789   -0.8581187377    1.8307854575
13   
Frame written by nebterpolator, Wed Mar  2 17:00:57 2022
C        1.5190245662    0.3381311365   -0.0021760407
C        0.9352614574   -1.0077317137   -0.2845414495
C       -0.4320039705   -1.1756253426   -0.5525360899
C       -1.2175076405    0.2586889722   -0.0179915304
C       -0.4717931415    1.4996720929   -0.3294101553
N        0.8491386971    1.5199468440   -0.1239738082
H        2.5472868737    0.4240573111    0.3616672384
H        1.6197627179   -1.8501475736   -0.1371028360
H       -1.0131848182   -1.6319144186   -1.3608461800
H       -2.2809729007    0.0054327279   -0.1140987844
H       -0.9118766890    2.5068915112   -0.4314262393
C       -0.3877037133   -0.0516887577    1.1525481080
H       -0.7554314386   -0.8357127896    1.8398877674
13   
Frame written by nebterpolator, Wed Mar  2 17:00:57 2022
C        1.4859875020    0.3343646109    0.0312226948
C        0.8909384754   -1.0223371928   -0.2819182139
C       -0.4336770423   -1.1723423563   -0.6016122346
C       -1.1988253540    0.2592165329   -0.0123696912
C       -0.4775346989    1.5094344921   -0.3538140743
N        0.8420524873    1.5252338494   -0.1277157549
H        2.5013999107    0.4075368140    0.4364998471
H        1.5778130636   -1.8668832180   -0.1288816703
H       -1.0011458524   -1.6258355494   -1.4234081669
H       -2.2619933489   -0.0156739104   -0.0654481346
H       -0.9233774300    2.5117555768   -0.4719250311
C       -0.3342595202   -0.0262339285    1.1503734674
H       -0.6673781922   -0.8182357208    1.8489969625
13   
Frame written by nebterpolator, Wed Mar  2 17:00:57 2022
C        1.4438827816    0.3135209670    0.0672043639
C        0.8612639378   -1.0203842418   -0.2733675221
C       -0.4434618483   -1.1556511481   -0.6505466833
C       -1.1765899347    0.2601763592   -0.0061039432
C       -0.4807674065    1.5186211914   -0.3807977007
N        0.8288429791    1.5280488503   -0.1429915713
H        2.4476971759    0.3793438466    0.5111588634
H        1.5479638319   -1.8700361194   -0.1198533709
H       -0.9942019649   -1.6162442928   -1.4812665716
H       -2.2400696945   -0.0251550454   -0.0130325840
H       -0.9327116558    2.5151115415   -0.5176345311
C       -0.2800158582   -0.0147742342    1.1493486070
H       -0.5818323434   -0.8125776745    1.8578826439
13   
Frame written by nebterpolator, Wed Mar  2 17:00:57 2022
C        1.4002161905    0.2993229223    0.1069203770
C        0.8332700319   -1.0193136535   -0.2628805770
C       -0.4579865313   -1.1312037436   -0.6970642404
C       -1.1504280486    0.2603836161    0.0013845498
C       -0.4801646580    1.5223949022   -0.4099323438
N        0.8190050489    1.5302880167   -0.1624881503
H        2.3914623202    0.3583127607    0.5839097760
H        1.5176226670   -1.8736994078   -0.1120568244
H       -0.9892648700   -1.6016052252   -1.5346620540
H       -2.2159132912   -0.0186110384    0.0418577184
H       -0.9400910537    2.5106387410   -0.5729442024
C       -0.2266356733   -0.0197451526    1.1488154084
H       -0.5010921323   -0.8171627377    1.8691405628
13   
Frame written by nebterpolator, Wed Mar  2 17:00:57 2022
C        1.3586063513    0.2960656578    0.1499715476
C        0.8025000730   -1.0226486599   -0.2505418209
C       -0.4730018046   -1.1015478238   -0.7374261533
C       -1.1230446142    0.2581149450    0.0103882656
C       -0.4773037961    1.5179281690   -0.4383242674
N        0.8153383890    1.5316434010   -0.1841605847
H        2.3380040926    0.3463776836    0.6512314616
H        1.4835761030   -1.8809978564   -0.1062505763
H       -0.9807382146   -1.5750462191   -1.5869916526
H       -2.1923795359    0.0031695817    0.0968954557
H       -0.9478153445    2.4940588431   -0.6368157775
C       -0.1757459611   -0.0406645057    1.1463159785
H       -0.4279957378   -0.8264532163    1.8857081237
13   
Frame written by nebterpolator, Wed Mar  2 17:00:57 2022
C        1.3196624318    0.2945548710    0.1940243771
C        0.7730026800   -1.0258751433   -0.2338195725
C       -0.4860187296   -1.0673798652   -0.7703063679
C       -1.0987180717    0.2511602059    0.0203380116
C       -0.4757368297    1.5057686678   -0.4612761666
N        0.8156223355    1.5302166327   -0.2097811105
H        2.2912845457    0.3348067403    0.7095554877
H        1.4509580641   -1.8884423810   -0.1008044260
H       -0.9644848764   -1.5284109095   -1.6439261488
H       -2.1726058200    0.0333143270    0.1493942713
H       -0.9599144813    2.4646860786   -0.7024403661
C       -0.1287609505   -0.0739887095    1.1383260539
H       -0.3642902978   -0.8304105148    1.9107159570
13   
Frame written by nebterpolator, Wed Mar  2 17:00:57 2022
C        1.2857212852    0.2948680430    0.2369699053
C        0.7455213242   -1.0325982876   -0.2140106857
C       -0.4969173129   -1.0360259251   -0.7960270041
C       -1.0803565002    0.2372152334    0.0302424643
C       -0.4756123476    1.4890034515   -0.4747560258
N        0.8173549179    1.5264444581   -0.2361336668
H        2.2543445211    0.3237685051    0.7574662157
H        1.4221164367   -1.8978432163   -0.0961312031
H       -0.9392704312   -1.4600034527   -1.7082559497
H       -2.1580796125    0.0633000269    0.1963963889
H       -0.9771918241    2.4244342294   -0.7641968548
C       -0.0884411140   -0.1155123726    1.1222337709
H       -0.3091893426   -0.8170506932    1.9462026448
13   
Frame written by nebterpolator, Wed Mar  2 17:00:57 2022
C        1.2573288837    0.2976165704    0.2764361701
C        0.7205384357   -1.0447445079   -0.1922447219
C       -0.5106570541   -1.0146855275   -0.8154011261
C       -1.0708236431    0.2167196666    0.0394637381
C       -0.4754725020    1.4725689871   -0.4782105891
N        0.8195545767    1.5206367868   -0.2589772387
H        2.2276901961    0.3146282281    0.7939079675
H        1.3994459018   -1.9090687942   -0.0926520305
H       -0.9042972986   -1.3741829123   -1.7780198981
H       -2.1501272591    0.0876007957    0.2364726082
H       -0.9960177723    2.3785837331   -0.8201768237
C       -0.0575701508   -0.1620452081    1.1009823045
H       -0.2595923140   -0.7836278178    1.9884196397
13   
Frame written by nebterpolator, Wed Mar  2 17:00:57 2022
C        1.2323222492    0.3017855918    0.3151053920
C        0.6964650360   -1.0591858441   -0.1678837077
C       -0.5320086621   -0.9955317846   -0.8331844270
C       -1.0702786728    0.1948011369    0.0474740163
C       -0.4743409189    1.4594602011   -0.4746325430
N        0.8217984335    1.5141284774   -0.2760035079
H        2.2087765914    0.3055386508    0.8214074598
H        1.3812455978   -1.9199077966   -0.0930165445
H       -0.8608129629   -1.2843922393   -1.8453109117
H       -2.1482063702    0.1104162912    0.2711500224
H       -1.0121430198    2.3289739154   -0.8771680201
C       -0.0322469087   -0.2139408057    1.0817077550
H       -0.2105703923   -0.7421457943    2.0303550162
13   
Frame written by nebterpolator, Wed Mar  2 17:00:57 2022
C        1.2078725384    0.3081789652    0.3628798627
C        0.6740377872   -1.0726501573   -0.1433372752
C       -0.5537735307   -0.9625695918   -0.8565789616
C       -1.0758648538    0.1749647783    0.0540265182
C       -0.4720812481    1.4520559859   -0.4634800355
N        0.8219763373    1.5100415121   -0.2861701268
H        2.1925086485    0.2949236361    0.8460851011
H        1.3670052298   -1.9257442746   -0.1065895332
H       -0.8265969658   -1.2070348864   -1.8961425267
H       -2.1484024921    0.1377010562    0.3011926943
H       -1.0202171466    2.2685748013   -0.9468090893
C       -0.0076905434   -0.2768075787    1.0676787121
H       -0.1587737606   -0.7016342464    2.0672446598
13   
Frame written by nebterpolator, Wed Mar  2 17:00:57 2022
C        1.1817828783    0.3161562440    0.4225127178
C        0.6604438687   -1.0911913473   -0.1223988077
C       -0.5670361437   -0.9248286154   -0.8883035656
C       -1.0852440643    0.1542583878    0.0600685179
C       -0.4655474427    1.4495078731   -0.4509748815
N        0.8063484125    1.5104603946   -0.2918409916
H        2.1704415475    0.2891044868    0.8692833393
H        1.3601290953   -1.9210459142   -0.1336123587
H       -0.8186581371   -1.1403303738   -1.9240878334
H       -2.1446712045    0.1671415777    0.3254177624
H       -1.0074874534    2.2008031098   -1.0233068143
C        0.0159127801   -0.3479181147    1.0625263378
H       -0.1064141367   -0.6621177085    2.0947165777
