13   
Frame written by nebterpolator, Fri Mar  4 13:47:45 2022
C        1.5440404333    0.5861293134   -0.1642656935
C        0.8932240621   -0.7432938957    0.0274589318
C       -0.4118021088   -0.6570999196   -0.6948209223
C       -1.0183475571    0.6294805270    0.8815113260
C       -0.6032954815    0.9022185475   -0.5702328577
N        0.7481623825    1.5150230143   -0.5423615294
H        2.5983866781    0.7809973401    0.0292120357
H        1.4557634281   -1.6712684557    0.0633870647
H       -0.8129686200   -1.3478195967   -1.4308827970
H       -1.9834849206    0.8770013627    1.3088557403
H       -1.2899603538    1.4326196268   -1.2296229830
C       -0.4463686444   -0.7299036655    0.8394551851
H       -0.6733492982   -1.5740841980    1.4823064987
13   
Frame written by nebterpolator, Fri Mar  4 13:47:45 2022
C        1.5883518510    0.5854323226   -0.2130364908
C        0.9665481720   -0.7345226099   -0.0326088958
C       -0.3752810237   -0.7021757144   -0.6817332906
C       -1.0568826317    0.6193164691    0.9131839205
C       -0.6280062560    0.9259442102   -0.5225755398
N        0.7852155860    1.5448873561   -0.5994274205
H        2.6379242365    0.7814617397    0.0213781024
H        1.5429049452   -1.6547845238    0.0639281131
H       -0.7874414760   -1.4107703471   -1.4094025839
H       -2.0115537201    0.8999973530    1.3608063234
H       -1.3076611840    1.4595785634   -1.2006718841
C       -0.5409655241   -0.7283735653    0.8343606462
H       -0.8131529752   -1.5859912536    1.4657990000
13   
Frame written by nebterpolator, Fri Mar  4 13:47:45 2022
C        1.6441847200    0.6049082212   -0.2551028992
C        1.0517642250   -0.7406789719   -0.0828711320
C       -0.3743929668   -0.7552920771   -0.6804477051
C       -1.0884310857    0.6034367717    0.9388071952
C       -0.6553420416    0.9399508244   -0.4837963572
N        0.8360572750    1.5618953624   -0.6649886839
H        2.6717568768    0.8115224457    0.0284337822
H        1.6329316266   -1.6384913309    0.0833559213
H       -0.7902926500   -1.4635185399   -1.3953676852
H       -2.0155879453    0.9260383369    1.4169381492
H       -1.3240407386    1.4828998867   -1.1669699566
C       -0.6396264729   -0.7383612220    0.8214178272
H       -0.9489808225   -1.5943097072    1.4405915441
13   
Frame written by nebterpolator, Fri Mar  4 13:47:45 2022
C        1.6864723946    0.5999932190   -0.2945213584
C        1.1387607435   -0.7373262392   -0.1400140263
C       -0.3586544341   -0.8072340766   -0.6715917566
C       -1.1217555031    0.5877128369    0.9600325942
C       -0.6819795203    0.9619009183   -0.4426230802
N        0.8661235882    1.5737360467   -0.7284382215
H        2.6980361053    0.8197817496    0.0271610998
H        1.7251040284   -1.6046885630    0.1134514201
H       -0.7755280133   -1.5089519749   -1.3834322595
H       -2.0103575613    0.9516548819    1.4754267984
H       -1.3426995904    1.5075939915   -1.1306196693
C       -0.7404952404   -0.7459797744    0.8035797396
H       -1.0830269972   -1.5981930158    1.4115887198
13   
Frame written by nebterpolator, Fri Mar  4 13:47:45 2022
C        1.6903167092    0.5669647758   -0.3360924953
C        1.1872424736   -0.7250209108   -0.2049629801
C       -0.2799846460   -0.8568159958   -0.6382464184
C       -1.1596679479    0.5772930892    0.9756394264
C       -0.7000077113    1.0037446269   -0.3939664505
N        0.8623359124    1.5900013443   -0.7695054884
H        2.7125284583    0.7880263138   -0.0100766496
H        1.7923874702   -1.5609970721    0.1379388577
H       -0.6965351296   -1.5490726885   -1.3712828968
H       -2.0025402153    0.9759818803    1.5322029331
H       -1.3616986046    1.5358058439   -1.0970869746
C       -0.8359231939   -0.7477598507    0.7867863961
H       -1.2084535751   -1.5981513564    1.3886527403
13   
Frame written by nebterpolator, Fri Mar  4 13:47:45 2022
C        1.6855359936    0.5645009424   -0.3722215999
C        1.2088644814   -0.7400421521   -0.2561483795
C       -0.1945403955   -0.9289577527   -0.5995357522
C       -1.1952668796    0.5646725885    0.9701866732
C       -0.7148452038    1.0515811696   -0.3532967482
N        0.8595426010    1.6039885892   -0.7978960329
H        2.7173719497    0.7838017652   -0.0517963628
H        1.8381211691   -1.5338259050    0.1658180613
H       -0.6037450017   -1.5857036649   -1.3753805441
H       -1.9518551915    1.0091988894    1.6003720960
H       -1.3832291988    1.5689352353   -1.0654066910
C       -0.9401630200   -0.7622645259    0.7579932768
H       -1.3257913039   -1.5958851790    1.3773120032
13   
Frame written by nebterpolator, Fri Mar  4 13:47:45 2022
C        1.6773244908    0.5649212238   -0.3818513429
C        1.2441757938   -0.7550382442   -0.2787898342
C       -0.1470373952   -1.0096539881   -0.5704544510
C       -1.2427673761    0.5477849657    0.9297164450
C       -0.7346076489    1.0967721794   -0.3363052276
N        0.8477830594    1.5980336941   -0.8140045084
H        2.7132670952    0.7926946054   -0.0784556407
H        1.8926712316   -1.5036606208    0.2001901713
H       -0.5366753690   -1.6114448902   -1.3962415928
H       -1.8359846837    1.0408541819    1.6823572334
H       -1.4083834727    1.6089662039   -1.0451010394
C       -1.0477190946   -0.7825702522    0.7143681507
H       -1.4220466306   -1.5876590588    1.3745716365
13   
Frame written by nebterpolator, Fri Mar  4 13:47:45 2022
C        1.6575389546    0.5848944924   -0.3776112880
C        1.2650030489   -0.7847962483   -0.2856533505
C       -0.1142720268   -1.1006184595   -0.5365315155
C       -1.2914840771    0.5360539761    0.8729284385
C       -0.7448790872    1.1489020226   -0.3337201653
N        0.8318878146    1.5829449997   -0.8067053123
H        2.6975228943    0.8201960949   -0.1079759913
H        1.9377253962   -1.4919637483    0.2203442373
H       -0.4803158598   -1.6448233707   -1.4093571811
H       -1.6909970821    1.0527594901    1.7441376114
H       -1.4248348397    1.6676599799   -1.0288491370
C       -1.1378782665   -0.8004829225    0.6738313414
H       -1.5050168694   -1.5707263065    1.3751623124
13   
Frame written by nebterpolator, Fri Mar  4 13:47:45 2022
C        1.6273319559    0.5797885010   -0.3584963951
C        1.2991512388   -0.8041854085   -0.2799438774
C       -0.1090308324   -1.1959632529   -0.4909825493
C       -1.3030791523    0.5345812758    0.8151435952
C       -0.7345422384    1.2226815762   -0.3345558681
N        0.7889143701    1.5480836880   -0.7879909685
H        2.6708340973    0.8403483568   -0.1456505819
H        2.0046414870   -1.4793731290    0.2126410755
H       -0.4467557484   -1.7134097037   -1.3892894934
H       -1.6026593816    1.0426664091    1.7412444968
H       -1.4277303050    1.7772514689   -0.9843436299
C       -1.1922070428   -0.8094754155    0.6355827400
H       -1.5748684482   -1.5429943662    1.3666414562
13   
Frame written by nebterpolator, Fri Mar  4 13:47:45 2022
C        1.5890246544    0.5411338792   -0.3449973410
C        1.2933783501   -0.7971619438   -0.2747705549
C       -0.0847631032   -1.2561959620   -0.4354828125
C       -1.2965831562    0.5398855873    0.7618479786
C       -0.7110102999    1.2991761422   -0.3300745919
N        0.7310872522    1.5295555663   -0.7513582298
H        2.6430171527    0.8236480288   -0.1899610887
H        2.0478328403   -1.4708209264    0.1537244142
H       -0.3948573260   -1.8205886466   -1.3202203333
H       -1.6117478588    1.0324077783    1.6927053567
H       -1.4108896082    1.9028417098   -0.9255905519
C       -1.1890385442   -0.8074332515    0.6122146287
H       -1.6054503531   -1.5164479616    1.3519631258
13   
Frame written by nebterpolator, Fri Mar  4 13:47:45 2022
C        1.5652170929    0.5325482627   -0.3429047615
C        1.2831152886   -0.8056394761   -0.2703782452
C       -0.0794310865   -1.3044954190   -0.3835124039
C       -1.2858421197    0.5435822774    0.7134063873
C       -0.6797627832    1.3587422531   -0.3170973666
N        0.7014521282    1.5219942821   -0.7151390798
H        2.6218337791    0.8306615074   -0.2369584262
H        2.0739755156   -1.4782711343    0.0905705402
H       -0.3644150781   -1.9419321428   -1.2252441533
H       -1.6648078711    1.0205497520    1.6280461492
H       -1.3719483710    2.0238644441   -0.8535490227
C       -1.1695149358   -0.8062477460    0.5900015116
H       -1.6298715590   -1.4953568607    1.3227588709
13   
Frame written by nebterpolator, Fri Mar  4 13:47:45 2022
C        1.5499709737    0.5274533849   -0.3494630911
C        1.2736212113   -0.8110531049   -0.2703481930
C       -0.0742464983   -1.3391179365   -0.3345720236
C       -1.2802322617    0.5474151156    0.6725626841
C       -0.6511354749    1.4057416019   -0.2977308954
N        0.6853296880    1.5230178439   -0.6826162105
H        2.6079716707    0.8339679383   -0.2848785047
H        2.0925196229   -1.4845342230    0.0226359836
H       -0.3369736641   -2.0593702250   -1.1128802236
H       -1.7415370511    1.0079377457    1.5564203338
H       -1.3257123252    2.1306856627   -0.7766844391
C       -1.1463051782   -0.8038075469    0.5711106663
H       -1.6532707129   -1.4783362566    1.2864439132
13   
Frame written by nebterpolator, Fri Mar  4 13:47:45 2022
C        1.5396115667    0.5240526329   -0.3626845545
C        1.2647888972   -0.8143064198   -0.2749952476
C       -0.0641185710   -1.3648476521   -0.2872142662
C       -1.2799120974    0.5515726124    0.6376091779
C       -0.6266642479    1.4441768248   -0.2736689140
N        0.6782478401    1.5302068216   -0.6522863585
H        2.5992880055    0.8317285971   -0.3350074002
H        2.1052869708   -1.4889211256   -0.0482940615
H       -0.3061367272   -2.1670648770   -0.9871468588
H       -1.8287176210    0.9945113330    1.4787276558
H       -1.2782314845    2.2235114712   -0.6965253806
C       -1.1247025532   -0.8004551142    0.5556282136
H       -1.6787399781   -1.4641651043    1.2458579947
13   
Frame written by nebterpolator, Fri Mar  4 13:47:45 2022
C        1.5328672975    0.5219780536   -0.3803209440
C        1.2589779130   -0.8160702573   -0.2831436813
C       -0.0507431943   -1.3848657263   -0.2402511673
C       -1.2844587820    0.5557140310    0.6056629720
C       -0.6061235353    1.4760529225   -0.2462194297
N        0.6778286479    1.5407332295   -0.6229634518
H        2.5941294925    0.8256583288   -0.3882118338
H        2.1149131017   -1.4913396956   -0.1196509806
H       -0.2717518981   -2.2626807151   -0.8501695150
H       -1.9180212187    0.9803626114    1.3950831257
H       -1.2320603113    2.3038162141   -0.6130253503
C       -1.1077874468   -0.7969383671    0.5420358819
H       -1.7077700662   -1.4524206296    1.2011743742
13   
Frame written by nebterpolator, Fri Mar  4 13:47:45 2022
C        1.5288959448    0.5209034403   -0.4008749616
C        1.2569199920   -0.8167830165   -0.2935792395
C       -0.0353699763   -1.4005820190   -0.1926293442
C       -1.2933154874    0.5594944309    0.5743045014
C       -0.5890860656    1.5023332981   -0.2161829064
N        0.6826087789    1.5528374400   -0.5935424508
H        2.5909839725    0.8173295272   -0.4452070138
H        2.1224205176   -1.4922051857   -0.1893873407
H       -0.2337541203   -2.3444482260   -0.7030703702
H       -2.0042300323    0.9659030980    1.3058676653
H       -1.1886956250    2.3721396457   -0.5264681149
C       -1.0968880685   -0.7937799706    0.5288351689
H       -1.7404898305   -1.4431424624    1.1519344064
13   
Frame written by nebterpolator, Fri Mar  4 13:47:45 2022
C        1.5264052809    0.5203530561   -0.4234475642
C        1.2569579945   -0.8170842515   -0.3049139462
C       -0.0177996957   -1.4124657592   -0.1439085504
C       -1.3051942738    0.5627428620    0.5421746172
C       -0.5749386061    1.5240054363   -0.1841701339
N        0.6910162099    1.5655834188   -0.5633374277
H        2.5880854193    0.8076770407   -0.5065366020
H        2.1272305703   -1.4925155346   -0.2556180450
H       -0.1910683187   -2.4112345180   -0.5472042034
H       -2.0844338281    0.9515838374    1.2119130312
H       -1.1490862937    2.4291536787   -0.4377249674
C       -1.0915452218   -0.7912676199    0.5148283414
H       -1.7756292371   -1.4365316469    1.0979454503
13   
Frame written by nebterpolator, Fri Mar  4 13:47:45 2022
C        1.5242609453    0.5197970602   -0.4474319510
C        1.2579866769   -0.8174448938   -0.3151514632
C        0.0009013069   -1.4209866885   -0.0950563286
C       -1.3186593427    0.5658292352    0.5088820153
C       -0.5631808976    1.5419404476   -0.1508789668
N        0.7012609459    1.5780767010   -0.5333892413
H        2.5835554652    0.7974272061   -0.5723283969
H        2.1292102942   -1.4928453794   -0.3153670139
H       -0.1429422165   -2.4619135744   -0.3834865941
H       -2.1567523301    0.9380728519    1.1141928605
H       -1.1131250246    2.4759011958   -0.3467212512
C       -1.0909894846   -0.7904451916    0.4982356622
H       -1.8115263383   -1.4334089701    1.0385006690
13   
Frame written by nebterpolator, Fri Mar  4 13:47:45 2022
C        1.5217910974    0.5187993991   -0.4723862558
C        1.2600546214   -0.8179730932   -0.3222731955
C        0.0185100283   -1.4274988912   -0.0461358652
C       -1.3330294272    0.5688631038    0.4749349987
C       -0.5531863414    1.5573367414   -0.1173629785
N        0.7117358020    1.5896729294   -0.5057588834
H        2.5756811554    0.7868212868   -0.6427399690
H        2.1291148673   -1.4929411444   -0.3671614527
H       -0.0894283261   -2.4967011193   -0.2150646495
H       -2.2213714529    0.9255479218    1.0132032398
H       -1.0787593040    2.5147005931   -0.2526663021
C       -1.0942408519   -0.7925217803    0.4789321378
H       -1.8468718683   -1.4341059470    0.9744791754
13   
Frame written by nebterpolator, Fri Mar  4 13:47:45 2022
C        1.5187414247    0.5174990116   -0.4974601477
C        1.2632844461   -0.8189342757   -0.3250120691
C        0.0346681526   -1.4332401377    0.0071541919
C       -1.3485444845    0.5724005391    0.4414009212
C       -0.5448046869    1.5715279925   -0.0829425239
N        0.7226921082    1.6007970376   -0.4794157336
H        2.5632810261    0.7754650265   -0.7196582719
H        2.1269959380   -1.4928992532   -0.4144725970
H       -0.0311180018   -2.5178808437   -0.0491840777
H       -2.2807319674    0.9141665830    0.9065976276
H       -1.0444320811    2.5478577103   -0.1574435632
C       -1.0995969925   -0.7984275831    0.4613104922
H       -1.8804348815   -1.4383318073    0.9091257513
13   
Frame written by nebterpolator, Fri Mar  4 13:47:45 2022
C        1.5159208600    0.5165515336   -0.5219425068
C        1.2682363013   -0.8212323819   -0.3235585603
C        0.0488859344   -1.4398186787    0.0679661097
C       -1.3659715254    0.5774217001    0.4093973937
C       -0.5387312841    1.5861700800   -0.0466744162
N        0.7354160556    1.6128025817   -0.4529323939
H        2.5459300346    0.7630719460   -0.8031248829
H        2.1222155009   -1.4925007740   -0.4610999316
H        0.0309726905   -2.5285872635    0.1095917862
H       -2.3361357283    0.9038665305    0.7928085242
H       -1.0097344667    2.5770174078   -0.0642431826
C       -1.1060199213   -0.8094060042    0.4492965403
H       -1.9109844514   -1.4453566775    0.8445155201
13   
Frame written by nebterpolator, Fri Mar  4 13:47:45 2022
C        1.5143146530    0.5169208136   -0.5447309115
C        1.2756695943   -0.8261651460   -0.3177180713
C        0.0609432682   -1.4488562723    0.1419877731
C       -1.3866115770    0.5854280170    0.3805146371
C       -0.5363371001    1.6029706997   -0.0067970645
N        0.7521456300    1.6274969491   -0.4236749827
H        2.5227340230    0.7491750890   -0.8943320385
H        2.1133214216   -1.4916837047   -0.5119802489
H        0.0958371144   -2.5308350293    0.2532017436
H       -2.3883953652    0.8949583120    0.6687326788
H       -0.9748159933    2.6027984089    0.0217636494
C       -1.1124479783   -0.8275575084    0.4492731770
H       -1.9363576907   -1.4546506287    0.7837596584
