13   
Frame written by nebterpolator, Wed Mar  2 15:52:17 2022
C        1.4686732685    0.4434648827   -0.3530738584
C        0.8844898150   -0.7852997800    0.2158355540
C       -0.7449175472   -0.8064664611    0.1739773918
C       -1.3117588051    0.4547650255   -0.3303380734
C       -0.5481144770    1.5423396026   -0.5757289614
N        0.8460300516    1.5355555592   -0.6348741906
H        2.5303145794    0.3995219587   -0.6079325517
H        1.4411642486   -1.6994013932    0.0000858207
H       -1.2584586499   -1.7272652578   -0.1086158969
H       -2.3826894973    0.4875523101   -0.5153848406
H       -1.0043020908    2.4797194493   -0.8832408489
C        0.0350901728   -0.7972998302    1.4092860838
H        0.0444789317   -1.5271860652    2.2100043717
13   
Frame written by nebterpolator, Wed Mar  2 15:52:17 2022
C        1.4704827528    0.4106140508   -0.3718981004
C        0.8828908842   -0.7938787589    0.1504647365
C       -0.7280016587   -0.8157123619    0.1018980616
C       -1.3003756977    0.4154968915   -0.3392632864
C       -0.5401877187    1.5300045569   -0.5479128147
N        0.8440661048    1.5321277392   -0.6191674974
H        2.5455321001    0.3838749741   -0.5837481996
H        1.4455891477   -1.7209613858   -0.0131258335
H       -1.2539730696   -1.7528541093   -0.1217468506
H       -2.3855927679    0.4570775198   -0.4814361094
H       -1.0136291013    2.4802435833   -0.8109408520
C        0.0459141047   -0.6813790106    1.4309774225
H       -0.0127150805   -1.4446536888    2.2058993235
13   
Frame written by nebterpolator, Wed Mar  2 15:52:17 2022
C        1.4708143948    0.3856463149   -0.3868117283
C        0.8701788448   -0.8074789634    0.0872418497
C       -0.7016398014   -0.8316251673    0.0327606397
C       -1.2887858566    0.3830979756   -0.3426728420
C       -0.5349212845    1.5148921181   -0.5224208695
N        0.8470064075    1.5248047247   -0.6033939592
H        2.5563801375    0.3713164876   -0.5602546034
H        1.4423551533   -1.7427415560   -0.0234485927
H       -1.2413653663   -1.7796886240   -0.1314725559
H       -2.3836527210    0.4294664443   -0.4446406675
H       -1.0217188791    2.4751235045   -0.7409937783
C        0.0574264155   -0.5619525519    1.4486255692
H       -0.0720774445   -1.3608607071    2.1874815383
13   
Frame written by nebterpolator, Wed Mar  2 15:52:17 2022
C        1.4716174493    0.3649525602   -0.3942128615
C        0.8558174142   -0.8271662126    0.0272821133
C       -0.6761286800   -0.8556691150   -0.0328361234
C       -1.2798158427    0.3542880205   -0.3391024664
C       -0.5294971972    1.5003344200   -0.4986953916
N        0.8498657804    1.5171984684   -0.5892780946
H        2.5632246098    0.3601709022   -0.5335829792
H        1.4366754527   -1.7642418714   -0.0330244359
H       -1.2265594744   -1.8080189357   -0.1411676326
H       -2.3788802420    0.4039436105   -0.4031847110
H       -1.0260284909    2.4661572968   -0.6751939967
C        0.0683108346   -0.4438174206    1.4554752862
H       -0.1286016138   -1.2681317234    2.1575212933
13   
Frame written by nebterpolator, Wed Mar  2 15:52:17 2022
C        1.4731807877    0.3472780547   -0.3931655930
C        0.8436103670   -0.8525320509   -0.0283591693
C       -0.6564672926   -0.8858460615   -0.0937724068
C       -1.2732523912    0.3263695860   -0.3290831883
C       -0.5223049191    1.4884984365   -0.4758778499
N        0.8512961194    1.5112484955   -0.5776823450
H        2.5676919816    0.3497770658   -0.5005276892
H        1.4305742438   -1.7874561752   -0.0421257469
H       -1.2136082175   -1.8383726502   -0.1515283653
H       -2.3731928690    0.3792762493   -0.3563313146
H       -1.0272790057    2.4562353273   -0.6150641043
C        0.0775930490   -0.3302136839    1.4433271794
H       -0.1778418533   -1.1642625935    2.1201905931
13   
Frame written by nebterpolator, Wed Mar  2 15:52:17 2022
C        1.4737860605    0.3339313469   -0.3828971658
C        0.8298879137   -0.8825477655   -0.0789294133
C       -0.6395944845   -0.9193922833   -0.1483303699
C       -1.2666350855    0.3009675562   -0.3125536610
C       -0.5142469408    1.4792656729   -0.4559423730
N        0.8523730024    1.5068135296   -0.5700112442
H        2.5697925799    0.3403281852   -0.4575407044
H        1.4213152948   -1.8137577049   -0.0492406992
H       -1.2015236193   -1.8701241168   -0.1600169970
H       -2.3659742119    0.3560913669   -0.3024377494
H       -1.0278851386    2.4463424259   -0.5644375431
C        0.0854786616   -0.2228388417    1.4068637115
H       -0.2167740323   -1.0550793715    2.0754742087
13   
Frame written by nebterpolator, Wed Mar  2 15:52:17 2022
C        1.4709237991    0.3217536720   -0.3608626168
C        0.8171904402   -0.9130316904   -0.1250734312
C       -0.6265401041   -0.9525375077   -0.1975364980
C       -1.2588650759    0.2803038119   -0.2887274797
C       -0.5065948589    1.4722237219   -0.4428470519
N        0.8510826222    1.5027461641   -0.5699485967
H        2.5679239374    0.3302342030   -0.3977757098
H        1.4109620975   -1.8403738592   -0.0544607864
H       -1.1918691007   -1.9005831513   -0.1661523454
H       -2.3562018893    0.3366580204   -0.2370298270
H       -1.0290376328    2.4368548806   -0.5293236612
C        0.0925654185   -0.1256633765    1.3444782361
H       -0.2415396532   -0.9485848887    2.0252597681
13   
Frame written by nebterpolator, Wed Mar  2 15:52:17 2022
C        1.4627514358    0.3105874239   -0.3265324085
C        0.8064568661   -0.9412691473   -0.1662247148
C       -0.6188293331   -0.9824083768   -0.2438257513
C       -1.2490708252    0.2660953828   -0.2573026446
C       -0.4999951029    1.4675689703   -0.4401020539
N        0.8469588271    1.4983230312   -0.5802685220
H        2.5600657345    0.3204840625   -0.3181702723
H        1.4004196979   -1.8651683214   -0.0578574632
H       -1.1867884746   -1.9269805994   -0.1716267817
H       -2.3424367016    0.3232751073   -0.1574581874
H       -1.0310365828    2.4284886773   -0.5161241657
C        0.0988407538   -0.0476393591    1.2617526001
H       -0.2473362951   -0.8513568513    1.9737403653
13   
Frame written by nebterpolator, Wed Mar  2 15:52:17 2022
C        1.4509944291    0.3083465792   -0.2839361400
C        0.7942705185   -0.9703181880   -0.2008255199
C       -0.6183194872   -1.0085106541   -0.2898738014
C       -1.2360589040    0.2588445883   -0.2189398489
C       -0.4947508507    1.4645175330   -0.4491029495
N        0.8444811516    1.4935599455   -0.5994608971
H        2.5457210425    0.3185019947   -0.2233834403
H        1.3867591302   -1.8900485844   -0.0594409698
H       -1.1896288933   -1.9471184446   -0.1804514706
H       -2.3225182562    0.3180018262   -0.0650362232
H       -1.0343551383    2.4202324922   -0.5299192908
C        0.1040828316    0.0011435012    1.1728258793
H       -0.2306775739   -0.7671525894    1.9275446721
13   
Frame written by nebterpolator, Wed Mar  2 15:52:17 2022
C        1.4421907712    0.3239038099   -0.2396945260
C        0.7831797997   -1.0058247276   -0.2300125375
C       -0.6328144623   -1.0320058280   -0.3373073566
C       -1.2213107847    0.2560520288   -0.1760704732
C       -0.4906698188    1.4603586035   -0.4679493842
N        0.8489980455    1.4884026696   -0.6212970431
H        2.5284461488    0.3337854527   -0.1248459613
H        1.3718321791   -1.9176431733   -0.0598254087
H       -1.2084290666   -1.9592410774   -0.1962597118
H       -2.2965311611    0.3219908234    0.0347298845
H       -1.0388416309    2.4086365850   -0.5698381701
C        0.1089493372    0.0196441493    1.0941970708
H       -0.1949993572   -0.6980593158    1.8941736172
13   
Frame written by nebterpolator, Wed Mar  2 15:52:17 2022
C        1.4266531097    0.3378670674   -0.1941087661
C        0.7733695811   -1.0330210342   -0.2517722834
C       -0.6509748364   -1.0470017278   -0.3860112207
C       -1.2022119986    0.2572990139   -0.1299093219
C       -0.4870363232    1.4578142635   -0.4924957344
N        0.8508354332    1.4833038510   -0.6442138551
H        2.5040124686    0.3480221824   -0.0275958194
H        1.3590736357   -1.9383764856   -0.0609970194
H       -1.2323351352   -1.9636224893   -0.2273687385
H       -2.2641260911    0.3307926300    0.1381112762
H       -1.0448716202    2.3953939764   -0.6281974707
C        0.1153083324    0.0149416653    1.0273555572
H       -0.1476965560   -0.6434129130    1.8772033962
13   
Frame written by nebterpolator, Wed Mar  2 15:52:17 2022
C        1.3936330691    0.3285750768   -0.1472367905
C        0.7627847950   -1.0349517661   -0.2607877057
C       -0.6585977952   -1.0462899266   -0.4335375053
C       -1.1761902324    0.2625084281   -0.0817139319
C       -0.4833455917    1.4606446243   -0.5175577020
N        0.8395720177    1.4784543633   -0.6686007554
H        2.4681373302    0.3402376842    0.0636386224
H        1.3506739812   -1.9417183917   -0.0643202598
H       -1.2484444129   -1.9598610055   -0.2830350939
H       -2.2259862456    0.3389249937    0.2394151969
H       -1.0529809532    2.3828983857   -0.6966080834
C        0.1245151698   -0.0069089737    0.9734740465
H       -0.0937711322   -0.6025134923    1.8768699620
13   
Frame written by nebterpolator, Wed Mar  2 15:52:17 2022
C        1.3612829000    0.3182941312   -0.1039733914
C        0.7589955585   -1.0319739066   -0.2613294422
C       -0.6758779476   -1.0372145205   -0.4801086378
C       -1.1499628980    0.2676517592   -0.0331958310
C       -0.4811857796    1.4622133631   -0.5402581702
N        0.8285589026    1.4715047427   -0.6909885277
H        2.4324014112    0.3334317345    0.1425128603
H        1.3492670191   -1.9400035114   -0.0672889257
H       -1.2761250293   -1.9457672505   -0.3594855240
H       -2.1859425069    0.3490579689    0.3350757938
H       -1.0633938062    2.3635284077   -0.7716276745
C        0.1363106106   -0.0391319837    0.9405496728
H       -0.0343284345   -0.5715909346    1.8901177975
13   
Frame written by nebterpolator, Wed Mar  2 15:52:17 2022
C        1.3382559009    0.3187903395   -0.0652797681
C        0.7591031904   -1.0362716905   -0.2572047667
C       -0.7053290912   -1.0255395219   -0.5243355725
C       -1.1259072543    0.2713368596    0.0148320426
C       -0.4816401170    1.4593858025   -0.5591781047
N        0.8239718319    1.4626964501   -0.7085015647
H        2.4031175457    0.3372129312    0.2073235674
H        1.3504099418   -1.9420676506   -0.0702274196
H       -1.3182053183   -1.9216035977   -0.4530530427
H       -2.1463184275    0.3610634676    0.4237969254
H       -1.0765934632    2.3338502678   -0.8495815698
C        0.1505476120   -0.0739647607    0.9276010327
H        0.0285876487   -0.5448888970    1.9138082408
13   
Frame written by nebterpolator, Wed Mar  2 15:52:17 2022
C        1.3167431304    0.3235047026   -0.0304259275
C        0.7343244767   -1.0431610690   -0.2458719214
C       -0.7118716772   -1.0108619247   -0.5544999702
C       -1.0976767990    0.2742286879    0.0633625555
C       -0.4841286661    1.4555947093   -0.5710926577
N        0.8207941724    1.4582709456   -0.7153158602
H        2.3789868194    0.3354103624    0.2535772346
H        1.3329947835   -1.9497477188   -0.0804216544
H       -1.3450281714   -1.8880409963   -0.5718162219
H       -2.1085875658    0.3662906700    0.4999319671
H       -1.0938223554    2.2956125756   -0.9257392965
C        0.1655168081   -0.1031357758    0.9306615399
H        0.0917550444   -0.5139651688    1.9476502127
13   
Frame written by nebterpolator, Wed Mar  2 15:52:17 2022
C        1.2970616831    0.3273336449   -0.0010248880
C        0.6932752920   -1.0514826246   -0.2272739299
C       -0.6995969903   -0.9955491178   -0.5684744732
C       -1.0700151920    0.2748596330    0.1090677095
C       -0.4886906235    1.4502695708   -0.5763762221
N        0.8160100961    1.4548712765   -0.7156842674
H        2.3609217508    0.3268617515    0.2814775397
H        1.3040952168   -1.9606982951   -0.0938037220
H       -1.3546043340   -1.8424381093   -0.7105484457
H       -2.0772197266    0.3644021966    0.5615853154
H       -1.1120783214    2.2537213386   -0.9910204042
C        0.1802927505   -0.1233683677    0.9452193133
H        0.1505483986   -0.4787828973    1.9868564745
13   
Frame written by nebterpolator, Wed Mar  2 15:52:17 2022
C        1.2843351918    0.3269592447    0.0224434578
C        0.6666587740   -1.0623602309   -0.2044741490
C       -0.6972119683   -0.9911146833   -0.5712389587
C       -1.0503870391    0.2710412497    0.1496539293
C       -0.4962331722    1.4394464427   -0.5780736125
N        0.8083642111    1.4444654638   -0.7181963363
H        2.3496042994    0.3198378006    0.2980391330
H        1.2896458967   -1.9688345720   -0.1026103086
H       -1.3718409366   -1.7733963228   -0.8634019394
H       -2.0535276489    0.3617489688    0.6130876946
H       -1.1289878708    2.2102369522   -1.0412209476
C        0.1941676333   -0.1359551340    0.9688608797
H        0.2054126295   -0.4420751796    2.0271311577
13   
Frame written by nebterpolator, Wed Mar  2 15:52:17 2022
C        1.2776259035    0.3255998765    0.0350478197
C        0.6486042481   -1.0775722334   -0.1840476199
C       -0.7058049985   -1.0227847229   -0.5371049971
C       -1.0394567479    0.2595856296    0.1838642874
C       -0.5033305426    1.4227312838   -0.5833072584
N        0.8012444209    1.4318946153   -0.7209203362
H        2.3429853267    0.3159789271    0.3046565006
H        1.2873480239   -1.9732149697   -0.1092396581
H       -1.3801539838   -1.6766510977   -1.0178339948
H       -2.0399328630    0.3601735280    0.6488859723
H       -1.1403565591    2.1759325338   -1.0717907663
C        0.2041935912   -0.1395047721    0.9918805666
H        0.2470341805   -0.4021685984    2.0599094842
13   
Frame written by nebterpolator, Wed Mar  2 15:52:17 2022
C        1.2692597481    0.3206831195    0.0422950830
C        0.6253288404   -1.0963462942   -0.1529372652
C       -0.7274089676   -1.0500347632   -0.5055118238
C       -1.0374073002    0.2481298999    0.2147020746
C       -0.5103181539    1.4053793983   -0.5889584025
N        0.7915952689    1.4164732284   -0.7247612646
H        2.3366433412    0.3090141890    0.3010076905
H        1.2776373088   -1.9812178555   -0.1069223626
H       -1.3452015101   -1.5757640087   -1.1729075746
H       -2.0314455560    0.3620148073    0.6829815440
H       -1.1486426300    2.1462236634   -1.0921907408
C        0.2163624441   -0.1427277806    1.0151644555
H        0.2835971663   -0.3618276036    2.0880385865
13   
Frame written by nebterpolator, Wed Mar  2 15:52:17 2022
C        1.2612724009    0.3140498596    0.0550773110
C        0.6033783841   -1.1168160214   -0.1151511124
C       -0.7555169763   -1.0558438059   -0.5012488289
C       -1.0376354777    0.2381631478    0.2454635372
C       -0.5171484480    1.3899011540   -0.5913376304
N        0.7765121810    1.3996904994   -0.7294852847
H        2.3293379984    0.3002650195    0.2942761446
H        1.2627005170   -1.9911254459   -0.0999219253
H       -1.3017320726   -1.4766994503   -1.3240454237
H       -2.0206477244    0.3623932390    0.7224793700
H       -1.1571834006    2.1094466432   -1.1145103929
C        0.2339042054   -0.1499071009    1.0418329050
H        0.3227584127   -0.3235177381    2.1165713305
13   
Frame written by nebterpolator, Wed Mar  2 15:52:17 2022
C        1.2554438109    0.3051387786    0.0798865210
C        0.5870576059   -1.1365746071   -0.0716404274
C       -0.7817308566   -1.0226423988   -0.5568615767
C       -1.0364777726    0.2319706169    0.2756994479
C       -0.5232097290    1.3795709905   -0.5854999817
N        0.7516877554    1.3833881429   -0.7332607110
H        2.3203727176    0.2896940281    0.2881425752
H        1.2443411958   -2.0002469418   -0.0922502474
H       -1.2747494198   -1.3919856153   -1.4530726234
H       -2.0030793770    0.3576662782    0.7685436230
H       -1.1661554240    2.0583343054   -1.1436336877
C        0.2567306395   -0.1634896600    1.0757518213
H        0.3697688540   -0.2908239177    2.1481952668
