13   
Frame written by nebterpolator, Thu Mar  3 00:41:33 2022
C        1.6276639315    0.3392271855   -0.3027601267
C        1.1393237710   -0.9428352096   -0.4738965665
C       -0.2056741721   -1.4171572286   -0.2711846395
C       -1.2783094952   -0.6848475977    0.1421864018
C       -0.2471559984    1.6191039934    0.4195377458
N        1.0602970564    1.5047078549    0.0861278080
H        2.6912210000    0.4564990081   -0.5222194936
H        1.8652133641   -1.6818652093   -0.8043903605
H       -0.3710696079   -2.4737481844   -0.4722864989
H       -2.2282300129   -1.2058790824    0.2435343208
H       -0.5060666194    2.6396143676    0.7102013760
C       -1.2952218083    0.7195564842    0.4640634259
H       -2.2519914088    1.1276236189    0.7810866077
13   
Frame written by nebterpolator, Thu Mar  3 00:41:33 2022
C        1.6282849211    0.3339233942   -0.2916284617
C        1.1486546289   -0.9409496993   -0.4520734398
C       -0.1999401956   -1.3907133570   -0.2899876685
C       -1.2708478814   -0.6447500072    0.1148831783
C       -0.2609004490    1.5883907154    0.3560337771
N        1.0402579758    1.4827808952    0.0355745025
H        2.7052077614    0.4564091298   -0.4848525603
H        1.8838180224   -1.6960978857   -0.7578933927
H       -0.3839819832   -2.4505120461   -0.5035813242
H       -2.2308379340   -1.1426811994    0.1510581350
H       -0.5550206580    2.6145130895    0.5942738818
C       -1.2906160258    0.6836963656    0.5659894815
H       -2.2140781826    1.1059906050    0.9622038910
13   
Frame written by nebterpolator, Thu Mar  3 00:41:33 2022
C        1.6323988734    0.3315099462   -0.2806088031
C        1.1572021127   -0.9450388149   -0.4262375749
C       -0.1994933845   -1.3735850289   -0.3057384968
C       -1.2667344230   -0.6114366090    0.0904857090
C       -0.2777648467    1.5681157633    0.2975666167
N        1.0210243219    1.4777887306   -0.0148848165
H        2.7147650316    0.4574023853   -0.4518765554
H        1.8962700879   -1.7102107848   -0.7075421091
H       -0.4005042211   -2.4284691032   -0.5390274758
H       -2.2409807997   -1.0773648071    0.0517077180
H       -0.6084130700    2.5955169443    0.4783782102
C       -1.2662377319    0.6442908912    0.6728397608
H       -2.1615319507    1.0714804870    1.1349378168
13   
Frame written by nebterpolator, Thu Mar  3 00:41:33 2022
C        1.6390566875    0.3304712972   -0.2708886016
C        1.1707867962   -0.9504021141   -0.3959832565
C       -0.2038732389   -1.3599772885   -0.3127892592
C       -1.2626449976   -0.5758014352    0.0697718134
C       -0.2948720569    1.5438457319    0.2452337185
N        1.0004948933    1.4753884893   -0.0611321513
H        2.7223797831    0.4636708523   -0.4306210834
H        1.9095826849   -1.7223827173   -0.6612725533
H       -0.4230216577   -2.4066607376   -0.5678070021
H       -2.2510349752   -0.9971255220   -0.0563612854
H       -0.6675388627    2.5672673984    0.3657800880
C       -1.2350671947    0.5982409752    0.7827854626
H       -2.1042478614    1.0334650703    1.2932841105
13   
Frame written by nebterpolator, Thu Mar  3 00:41:33 2022
C        1.6459568996    0.3303235458   -0.2637991982
C        1.1822161200   -0.9567026388   -0.3685290484
C       -0.2052618515   -1.3465259530   -0.3109595611
C       -1.2538272486   -0.5319775571    0.0515818664
C       -0.3108343157    1.5117723184    0.1973715409
N        0.9790653371    1.4713524868   -0.0988672718
H        2.7285553519    0.4728301304   -0.4176346346
H        1.9185548983   -1.7344698240   -0.6229678947
H       -0.4455172164   -2.3840011015   -0.5825231192
H       -2.2502152550   -0.8961556322   -0.1716274876
H       -0.7319425384    2.5229474655    0.2577433147
C       -1.2062916341    0.5453695167    0.8946562642
H       -2.0504585472    0.9952372430    1.4355552294
13   
Frame written by nebterpolator, Thu Mar  3 00:41:33 2022
C        1.6498271183    0.3389973070   -0.2579389013
C        1.1705537702   -0.9735096357   -0.3522576226
C       -0.1860802248   -1.3320289587   -0.3066106367
C       -1.2344844414   -0.4729779858    0.0342344328
C       -0.3252353187    1.4745510616    0.1510020907
N        0.9629657940    1.4670732602   -0.1256611690
H        2.7333981030    0.4851798790   -0.4038032198
H        1.9069768317   -1.7583271236   -0.5935154667
H       -0.4539672610   -2.3613195223   -0.5823458258
H       -2.2281097618   -0.7746840203   -0.2861553715
H       -0.7979921742    2.4641907501    0.1565289186
C       -1.1886059760    0.4872193400    1.0047938880
H       -2.0092464594    0.9556356484    1.5617288833
13   
Frame written by nebterpolator, Thu Mar  3 00:41:33 2022
C        1.6622886544    0.3570985526   -0.2500101449
C        1.1663574556   -0.9960646551   -0.3364507484
C       -0.1766956471   -1.3177122575   -0.3034415537
C       -1.2112094167   -0.4042529342    0.0164881531
C       -0.3374978125    1.4309776835    0.0988455891
N        0.9539668284    1.4612071538   -0.1518423374
H        2.7424707620    0.5092730433   -0.3891735328
H        1.8972106121   -1.7851184466   -0.5714936589
H       -0.4773809052   -2.3362594499   -0.5739782765
H       -2.1937235942   -0.6400187975   -0.3876943076
H       -0.8586602929    2.3951731392    0.0643326562
C       -1.1857647628    0.4183715669    1.1072122512
H       -1.9813618812    0.9073254016    1.6772059106
13   
Frame written by nebterpolator, Thu Mar  3 00:41:33 2022
C        1.6750182417    0.3574270775   -0.2485162910
C        1.1695994394   -1.0016250266   -0.3395518373
C       -0.1682128785   -1.2919220439   -0.3065719815
C       -1.1815279958   -0.3224835446    0.0039379229
C       -0.3482225484    1.3852019796    0.0406198950
N        0.9465463054    1.4496863440   -0.1771179119
H        2.7561216011    0.5153327645   -0.3571986765
H        1.8939617386   -1.8002102138   -0.5605430224
H       -0.5030936008   -2.3062419131   -0.5489309206
H       -2.1474559800   -0.4956562692   -0.4715184708
H       -0.9102051906    2.3252709357   -0.0209082182
C       -1.2048207619    0.3386229044    1.2034209016
H       -1.9777083701    0.8465970055    1.7828786107
13   
Frame written by nebterpolator, Thu Mar  3 00:41:33 2022
C        1.6871238297    0.3464381906   -0.2514499260
C        1.1787688903   -0.9943321632   -0.3622572466
C       -0.1622596002   -1.2578878970   -0.3189826456
C       -1.1472753818   -0.2339537789   -0.0014804078
C       -0.3530788499    1.3429714293   -0.0234514389
N        0.9456306074    1.4322740023   -0.2000791031
H        2.7717554043    0.5084437690   -0.3053456123
H        1.8964863038   -1.8052221169   -0.5628774659
H       -0.5306767929   -2.2731946755   -0.5078366412
H       -2.0946483689   -0.3503962268   -0.5346081584
H       -0.9430841880    2.2661718359   -0.0988420321
C       -1.2461199046    0.2485591798    1.2911831861
H       -2.0026219491    0.7701284514    1.8760274919
13   
Frame written by nebterpolator, Thu Mar  3 00:41:33 2022
C        1.7028733399    0.3374610249   -0.2514097232
C        1.1856278767   -0.9893969419   -0.4013008902
C       -0.1571541311   -1.2241990313   -0.3412390339
C       -1.1080685707   -0.1440451974    0.0019447058
C       -0.3481980401    1.3127824234   -0.0915100638
N        0.9549359439    1.4195967166   -0.2161825471
H        2.7882599566    0.4980671543   -0.2369752989
H        1.8956254240   -1.8113666568   -0.5823110455
H       -0.5580138054   -2.2396251296   -0.4565435825
H       -2.0382150605   -0.2103296238   -0.5752673594
H       -0.9525834373    2.2277468946   -0.1703658283
C       -1.3062017512    0.1490904354    1.3693894731
H       -2.0588877448    0.6742179316    1.9517711940
13   
Frame written by nebterpolator, Thu Mar  3 00:41:33 2022
C        1.7210340071    0.3240793628   -0.2511752517
C        1.1925267196   -0.9799394924   -0.4573022763
C       -0.1512563656   -1.1908767975   -0.3668540195
C       -1.0640050697   -0.0566447805    0.0248733469
C       -0.3293321661    1.2996204219   -0.1497371543
N        0.9775608704    1.4103882757   -0.2210902533
H        2.8046726533    0.4741595133   -0.1587787680
H        1.8944536004   -1.8119285873   -0.6254775919
H       -0.5781978883   -2.2044157446   -0.4018697994
H       -1.9855218741   -0.0828299923   -0.5783987473
H       -0.9321245517    2.2175733436   -0.2270740462
C       -1.3894621436    0.0379785971    1.4286113734
H       -2.1603477918    0.5628358802    1.9842731875
13   
Frame written by nebterpolator, Thu Mar  3 00:41:33 2022
C        1.7469205869    0.3019247271   -0.2563660875
C        1.2081422582   -0.9604995937   -0.5148936617
C       -0.1394434323   -1.1571637823   -0.3764412637
C       -1.0083084308    0.0098488134    0.0820441657
C       -0.2915754003    1.3081274922   -0.1622170122
N        1.0158158867    1.4081750777   -0.2153252189
H        2.8286692857    0.4328821903   -0.1077106985
H        1.8999496679   -1.7997247980   -0.6959076451
H       -0.5820239643   -2.1682693577   -0.3553890779
H       -1.9863604895   -0.0146473911   -0.5301351254
H       -0.8825803849    2.2354097464   -0.2340295874
C       -1.5092082957   -0.0803213432    1.4393068755
H       -2.2999972876    0.4842582189    1.9270643371
13   
Frame written by nebterpolator, Thu Mar  3 00:41:33 2022
C        1.7753725944    0.2997369249   -0.2705872186
C        1.2242990678   -0.9495512449   -0.5379683133
C       -0.1155268341   -1.1399278293   -0.3473464429
C       -0.9515957703    0.0273358417    0.1435264171
C       -0.2520032691    1.3165013771   -0.1097583585
N        1.0536122561    1.4111219890   -0.1950056212
H        2.8600041306    0.4219246041   -0.1415227049
H        1.9056898261   -1.7899085514   -0.7515880384
H       -0.5659049225   -2.1488065470   -0.3208825508
H       -2.0974551114   -0.0717120077   -0.4854201571
H       -0.8400582964    2.2471352137   -0.1725614847
C       -1.6249620658   -0.1427557374    1.3711837764
H       -2.3714716054    0.5189059672    1.8179306968
13   
Frame written by nebterpolator, Thu Mar  3 00:41:33 2022
C        1.8019067439    0.3134249823   -0.2842913964
C        1.2370450950   -0.9493559262   -0.5431514098
C       -0.0924185613   -1.1328802770   -0.3112517959
C       -0.9050822635    0.0296611028    0.1847168264
C       -0.2182675231    1.3186758022   -0.0454848969
N        1.0855589094    1.4149487448   -0.1679147926
H        2.8887511280    0.4359775634   -0.2050296118
H        1.9077233785   -1.7895947192   -0.7827232018
H       -0.5502594596   -2.1376866208   -0.2963228748
H       -2.2362887358   -0.1824649731   -0.4458904116
H       -0.8074924818    2.2497850349   -0.0950192560
C       -1.7175136214   -0.1566832593    1.2728986337
H       -2.3936626084    0.5861925453    1.7194641875
13   
Frame written by nebterpolator, Thu Mar  3 00:41:33 2022
C        1.8268409877    0.3223342290   -0.2976691892
C        1.2520486316   -0.9474594155   -0.5402503479
C       -0.0713542656   -1.1210646429   -0.2837141328
C       -0.8606388026    0.0336069064    0.2106479873
C       -0.1851325601    1.3204547617    0.0159653053
N        1.1152235958    1.4187921852   -0.1444272831
H        2.9142997868    0.4469480908   -0.2712982131
H        1.9104920271   -1.7905842123   -0.7988767372
H       -0.5388732350   -2.1217537484   -0.2847893958
H       -2.3709088728   -0.3121260817   -0.3871610805
H       -0.7744217837    2.2522129724   -0.0127739415
C       -1.8009900072   -0.1480413421    1.1708770878
H       -2.4165855019    0.6466802972    1.6234699408
13   
Frame written by nebterpolator, Thu Mar  3 00:41:33 2022
C        1.8483050447    0.3252073059   -0.3105375199
C        1.2672331170   -0.9431469381   -0.5334081370
C       -0.0542718780   -1.1077709120   -0.2642911666
C       -0.8260679607    0.0385916037    0.2286005846
C       -0.1527036141    1.3225832513    0.0775688204
N        1.1431170890    1.4209559406   -0.1203940364
H        2.9352417003    0.4519873264   -0.3369674016
H        1.9135722039   -1.7900176007   -0.8099227613
H       -0.5305304952   -2.1046225247   -0.2841920207
H       -2.4780456313   -0.4428966653   -0.3001656510
H       -0.7378114534    2.2564512702    0.0786445937
C       -1.8738134433   -0.1258133629    1.0617986421
H       -2.4542246791    0.6984913058    1.5132660537
13   
Frame written by nebterpolator, Thu Mar  3 00:41:33 2022
C        1.8637337947    0.3191773496   -0.3258659861
C        1.2834418538   -0.9331215914   -0.5231914757
C       -0.0410916338   -1.0924776568   -0.2511946182
C       -0.8028129933    0.0438122310    0.2368683452
C       -0.1233279933    1.3224490336    0.1376839953
N        1.1669112492    1.4197863914   -0.0964137842
H        2.9500026183    0.4483129513   -0.4020079831
H        1.9187822709   -1.7848764063   -0.8162650809
H       -0.5232132770   -2.0872819879   -0.2901055695
H       -2.5527093498   -0.5660252014   -0.1904036631
H       -0.6994213611    2.2594468573    0.1808191510
C       -1.9365974271   -0.0963084911    0.9525453181
H       -2.5036977515    0.7471065206    1.3875313512
13   
Frame written by nebterpolator, Thu Mar  3 00:41:33 2022
C        1.8778306245    0.3198800319   -0.3392087502
C        1.2937638249   -0.9293181881   -0.5183824535
C       -0.0331850584   -1.0832127808   -0.2459395213
C       -0.7894870810    0.0471917683    0.2341556615
C       -0.0972015551    1.3198194622    0.1902846235
N        1.1890619157    1.4205347628   -0.0678779539
H        2.9599846903    0.4509388115   -0.4575059249
H        1.9198797988   -1.7835620035   -0.8224836186
H       -0.5190035136   -2.0740516386   -0.2992622720
H       -2.5963791954   -0.6770242008   -0.0561688364
H       -0.6604402708    2.2565183586    0.2894486205
C       -1.9887742391   -0.0638891807    0.8469877059
H       -2.5560499406    0.7961747973    1.2459527195
13   
Frame written by nebterpolator, Thu Mar  3 00:41:33 2022
C        1.8902542737    0.3237433955   -0.3502583896
C        1.3003975578   -0.9277008450   -0.5187567980
C       -0.0286976058   -1.0773168466   -0.2440052613
C       -0.7823943790    0.0506278179    0.2238759496
C       -0.0754917021    1.3146411471    0.2337117928
N        1.2101292401    1.4209854150   -0.0353524646
H        2.9668643762    0.4563026007   -0.5021074403
H        1.9181167876   -1.7822962454   -0.8329360994
H       -0.5171376671   -2.0627162455   -0.3098037686
H       -2.6181490513   -0.7729929165    0.0966518304
H       -0.6233682171    2.2458532773    0.4000681031
C       -2.0336596449   -0.0320592389    0.7458396138
H       -2.6068639682    0.8429286843    1.0930729323
13   
Frame written by nebterpolator, Thu Mar  3 00:41:33 2022
C        1.9033173386    0.3277584622   -0.3601888751
C        1.3082252498   -0.9255006899   -0.5201921087
C       -0.0252403984   -1.0711312972   -0.2413520533
C       -0.7768939975    0.0568704995    0.2096066447
C       -0.0564447736    1.3069620988    0.2697191396
N        1.2309591559    1.4218727315   -0.0008109906
H        2.9736504554    0.4621231154   -0.5411648379
H        1.9165222027   -1.7794891947   -0.8443271502
H       -0.5169270924   -2.0492854770   -0.3215979819
H       -2.6380355448   -0.8550059392    0.2609270569
H       -0.5893881600    2.2266911117    0.5113123305
C       -2.0790301957   -0.0028966775    0.6338711316
H       -2.6507142398    0.8810312563    0.9441976945
13   
Frame written by nebterpolator, Thu Mar  3 00:41:33 2022
C        1.9264257874    0.3340537195   -0.3726496423
C        1.3269448631   -0.9246867033   -0.5166790570
C       -0.0208685491   -1.0632001041   -0.2330907724
C       -0.7678824353    0.0698163235    0.1958391018
C       -0.0354307559    1.2928425107    0.2997580462
N        1.2557637047    1.4288456256    0.0303350617
H        2.9840219015    0.4725931536   -0.5873907368
H        1.9188910166   -1.7743289560   -0.8452131148
H       -0.5166556011   -2.0258176856   -0.3327016792
H       -2.6950549531   -0.9138855978    0.4223177669
H       -0.5597696956    2.1927052707    0.6226377799
C       -2.1380275933    0.0131479433    0.4982980790
H       -2.6783576899    0.8979144999    0.8185391671
