13   
Frame written by nebterpolator, Thu Mar  3 10:04:37 2022
C        1.2440743142    0.2527275317    0.2503193254
C        0.5757887268   -1.1281582300   -0.2004073058
C       -0.7355507221   -0.8966105992   -0.7898570614
C       -1.0558106964    0.2139392876    0.2086124757
C       -0.4448641129    1.4714079870   -0.3979024983
N        0.8381818064    1.4624731756   -0.4190815764
H        2.2826029050    0.1720494619    0.5547101703
H        1.2235943286   -1.9933004274   -0.3012312881
H       -1.1404786482   -1.1003669026   -1.7784177914
H       -2.0651052431    0.2854326388    0.6198920614
H       -1.0204750992    2.2493841864   -0.8970717314
C        0.1461730167   -0.3443211364    1.0534239816
H        0.1518694241   -0.6446569734    2.0970112387
13   
Frame written by nebterpolator, Thu Mar  3 10:04:37 2022
C        1.2492208738    0.2522305043    0.2543691183
C        0.5785279532   -1.1142699789   -0.1988288804
C       -0.7325288311   -0.8683758961   -0.7911810232
C       -1.0587092412    0.2089651401    0.2273931669
C       -0.4520186095    1.4425918233   -0.4106813502
N        0.8391041168    1.4521630237   -0.4230173644
H        2.2944157276    0.1808845031    0.5529893079
H        1.2027218122   -2.0019414785   -0.2852635482
H       -1.1244753474   -1.0440851951   -1.7936785903
H       -2.0697345814    0.2880334564    0.6419893084
H       -1.0337432751    2.2082774823   -0.9283944347
C        0.1495003371   -0.3404488977    1.0567254336
H        0.1577190651   -0.6640244868    2.0975788562
13   
Frame written by nebterpolator, Thu Mar  3 10:04:37 2022
C        1.2547412268    0.2515536935    0.2587362714
C        0.5814652481   -1.1006101965   -0.1970895730
C       -0.7295983511   -0.8403017896   -0.7924982069
C       -1.0619370883    0.2037493574    0.2460964897
C       -0.4592241326    1.4134588013   -0.4232507350
N        0.8396718513    1.4417582506   -0.4271714315
H        2.3064351948    0.1899584641    0.5505799552
H        1.1813173380   -2.0104583133   -0.2694512508
H       -1.1079431859   -0.9874369559   -1.8085110322
H       -2.0745731602    0.2903884427    0.6636374122
H       -1.0465030455    2.1670674264   -0.9590690872
C        0.1529986933   -0.3362596300    1.0601209106
H        0.1631494115   -0.6828675508    2.0978702773
13   
Frame written by nebterpolator, Thu Mar  3 10:04:37 2022
C        1.2607414716    0.2505992995    0.2635838214
C        0.5847346292   -1.0873721953   -0.1951189930
C       -0.7268288934   -0.8125211490   -0.7938579889
C       -1.0656435511    0.1981644683    0.2647330098
C       -0.4663438757    1.3839449304   -0.4355852879
N        0.8394462415    1.4313157551   -0.4316799517
H        2.3186296129    0.1994688601    0.5471853058
H        1.1591149393   -2.0187251374   -0.2538425243
H       -1.0906370553   -0.9302540461   -1.8226136236
H       -2.0796227060    0.2924363158    0.6846252348
H       -1.0583555912    2.1257159636   -0.9888322828
C        0.1567368299   -0.3317320306    1.0637377671
H        0.1680279483   -0.7010410343    2.0976655134
13   
Frame written by nebterpolator, Thu Mar  3 10:04:37 2022
C        1.2675823937    0.2490875596    0.2693782299
C        0.5887048155   -1.0751003499   -0.1927071197
C       -0.7244213676   -0.7854382493   -0.7953791032
C       -1.0702760739    0.1918432991    0.2832688834
C       -0.4730765779    1.3538399053   -0.4475418550
N        0.8373223723    1.4209524467   -0.4369158719
H        2.3309735166    0.2099338399    0.5419118081
H        1.1353574107   -2.0263957266   -0.2386193757
H       -1.0718523601   -0.8721177967   -1.8351255025
H       -2.0849468524    0.2939467425    0.7042806215
H       -1.0682062180    2.0841747871   -1.0168167489
C        0.1609232971   -0.3267211404    1.0678981425
H        0.1719156440   -0.7180053173    2.0963678914
13   
Frame written by nebterpolator, Thu Mar  3 10:04:37 2022
C        1.2758187740    0.2469035305    0.2763047699
C        0.5934872553   -1.0640216857   -0.1897105199
C       -0.7225476294   -0.7593395736   -0.7971055418
C       -1.0761969618    0.1845258818    0.3013363655
C       -0.4798852096    1.3227307603   -0.4587207740
N        0.8338200420    1.4104383603   -0.4429305168
H        2.3438511334    0.2213794420    0.5341654102
H        1.1095584780   -2.0333704074   -0.2240315861
H       -1.0512329112   -0.8129939694   -1.8456197212
H       -2.0909200789    0.2944258163    0.7218702153
H       -1.0758938375    2.0427614684   -1.0420027453
C        0.1657431574   -0.3206706229    1.0725718908
H        0.1743977885   -0.7327690004    2.0938727534
13   
Frame written by nebterpolator, Thu Mar  3 10:04:37 2022
C        1.2853219022    0.2442474008    0.2839379677
C        0.5986803034   -1.0536268127   -0.1862488267
C       -0.7210283726   -0.7339587567   -0.7988908435
C       -1.0830635062    0.1764077129    0.3187294548
C       -0.4873112395    1.2905564814   -0.4689974590
N        0.8303420326    1.3994327364   -0.4493652808
H        2.3576033802    0.2332462486    0.5245594940
H        1.0822911249   -2.0400599986   -0.2100650659
H       -1.0293392536   -0.7533773400   -1.8548673895
H       -2.0977910342    0.2937361077    0.7376810353
H       -1.0824898332    2.0019372708   -1.0646617078
C        0.1710872861   -0.3133247175    1.0772787368
H        0.1756972099   -0.7452163332    2.0909098847
13   
Frame written by nebterpolator, Thu Mar  3 10:04:37 2022
C        1.2961888673    0.2411198076    0.2921877329
C        0.6041777779   -1.0438640723   -0.1823005336
C       -0.7198573444   -0.7093584658   -0.8007184265
C       -1.0908572574    0.1674208956    0.3352364034
C       -0.4955936410    1.2571633478   -0.4782028210
N        0.8273762792    1.3877598712   -0.4561365372
H        2.3724490477    0.2453905941    0.5131192755
H        1.0535827633   -2.0465592958   -0.1968364967
H       -1.0062604756   -0.6934977764   -1.8629356636
H       -2.1057803984    0.2916128270    0.7515030454
H       -1.0881869088    1.9621315407   -1.0844574841
C        0.1769834450   -0.3044202695    1.0818282383
H        0.1757778452   -0.7548990042    2.0877132672
13   
Frame written by nebterpolator, Thu Mar  3 10:04:37 2022
C        1.3085518269    0.2374987694    0.3009508960
C        0.6098891225   -1.0347667916   -0.1778260546
C       -0.7190636985   -0.6856529956   -0.8026486401
C       -1.0995842420    0.1574209970    0.3506002749
C       -0.5049483109    1.2223265593   -0.4862028031
N        0.8253970404    1.3752617879   -0.4631641305
H        2.3885538644    0.2577204969    0.4999214656
H        1.0233813365   -2.0529074246   -0.1845270029
H       -0.9821263615   -0.6336450158   -1.8697751335
H       -2.1151315462    0.2876795833    0.7629862475
H       -1.0930639987    1.9239439529   -1.1008805273
C        0.1834746357   -0.2936857193    1.0860368615
H        0.1746703312   -0.7611941998    2.0845285466
13   
Frame written by nebterpolator, Thu Mar  3 10:04:37 2022
C        1.3224004831    0.2334273899    0.3100499268
C        0.6157427706   -1.0263669027   -0.1728499527
C       -0.7186586292   -0.6627933816   -0.8048323435
C       -1.1091737765    0.1463675772    0.3647322508
C       -0.5154269663    1.1859314461   -0.4931711109
N        0.8247646724    1.3619725766   -0.4703222917
H        2.4057423377    0.2701852594    0.4854355674
H        0.9917517664   -2.0590485334   -0.1733002000
H       -0.9573200918   -0.5741528444   -1.8753769858
H       -2.1258640687    0.2817562166    0.7720052646
H       -1.0971764216    1.8877342232   -1.1137796593
C        0.1905201547   -0.2811723092    1.0898271339
H        0.1726977692   -0.7638407178    2.0815824004
13   
Frame written by nebterpolator, Thu Mar  3 10:04:37 2022
C        1.3373587455    0.2289900493    0.3192864467
C        0.6216721346   -1.0185666683   -0.1674615531
C       -0.7185128595   -0.6403995730   -0.8073939300
C       -1.1193794112    0.1344044696    0.3779117797
C       -0.5266426829    1.1480212037   -0.4996794307
N        0.8251877397    1.3481682393   -0.4774842494
H        2.4235374946    0.2828111829    0.4705562091
H        0.9589803946   -2.0648997358   -0.1632935686
H       -0.9324544503   -0.5152777254   -1.8799581966
H       -2.1377070876    0.2740789115    0.7789468576
H       -1.1004742595    1.8533435985   -1.1237501460
C        0.1979523325   -0.2673877442    1.0932446960
H        0.1704819095   -0.7632862082    2.0790750853
13   
Frame written by nebterpolator, Thu Mar  3 10:04:37 2022
C        1.3532301549    0.2242092051    0.3284643814
C        0.6276024498   -1.0112019622   -0.1616341702
C       -0.7183087987   -0.6173062722   -0.8106875582
C       -1.1300850116    0.1215654986    0.3904772961
C       -0.5382339227    1.1074668703   -0.5068869690
N        0.8266502503    1.3341423100   -0.4842212615
H        2.4415042133    0.2956659793    0.4571613570
H        0.9250542045   -2.0701263687   -0.1558071364
H       -0.9089228403   -0.4577651311   -1.8837055967
H       -2.1507102800    0.2645165397    0.7837962024
H       -1.1025745287    1.8205528392   -1.1309634765
C        0.2055734159   -0.2527631985    1.0963235481
H        0.1692206932   -0.7589563096    2.0776833836
13   
Frame written by nebterpolator, Thu Mar  3 10:04:37 2022
C        1.3653783870    0.2218165533    0.3350104839
C        0.6313715867   -1.0022082038   -0.1574232884
C       -0.7136446597   -0.5824978665   -0.8165398375
C       -1.1385340078    0.1133930053    0.4037302243
C       -0.5460471954    1.0606695000   -0.5252516245
N        0.8331544777    1.3257699617   -0.4822283717
H        2.4526994412    0.3048642172    0.4662522920
H        0.8992426299   -2.0695177889   -0.1670652932
H       -0.9069801084   -0.4227409602   -1.8873994206
H       -2.1622810071    0.2573327491    0.7874670115
H       -1.1026557210    1.7882932896   -1.1399849292
C        0.2094271792   -0.2454753574    1.1000175391
H        0.1788689975   -0.7496990993    2.0834152144
13   
Frame written by nebterpolator, Thu Mar  3 10:04:37 2022
C        1.3592073306    0.2266395511    0.3331914233
C        0.6281381216   -0.9971626916   -0.1610473862
C       -0.7037677738   -0.5562963227   -0.8207329887
C       -1.1348930672    0.1220138750    0.4070201840
C       -0.5388609710    1.0501566161   -0.5455852952
N        0.8406798338    1.3355290998   -0.4664150338
H        2.4417454555    0.2985288690    0.5016357685
H        0.9140178461   -2.0587355311   -0.1979421328
H       -0.9436313710   -0.4588195755   -1.8840721575
H       -2.1591429080    0.2643116926    0.7893234422
H       -1.1004837011    1.7824353076   -1.1505656353
C        0.2031449506   -0.2597082852    1.1021765989
H        0.1938462540   -0.7488926053    2.0930132125
13   
Frame written by nebterpolator, Thu Mar  3 10:04:37 2022
C        1.3485066856    0.2328311546    0.3304928062
C        0.6233531875   -0.9944933747   -0.1666703101
C       -0.6929908069   -0.5365463329   -0.8247629124
C       -1.1278395252    0.1338617666    0.4055924561
C       -0.5273501055    1.0565869290   -0.5617122190
N        0.8461962596    1.3498295128   -0.4491462766
H        2.4255401582    0.2875717402    0.5357175589
H        0.9405812371   -2.0456050662   -0.2285404567
H       -0.9861499243   -0.5136189360   -1.8737751027
H       -2.1514826869    0.2741872394    0.7901177042
H       -1.0974081715    1.7874469620   -1.1604563391
C        0.1949736709   -0.2787799549    1.1029721293
H        0.2040700213   -0.7532716399    2.1001709619
13   
Frame written by nebterpolator, Thu Mar  3 10:04:37 2022
C        1.3385257531    0.2386112803    0.3291742503
C        0.6187215985   -0.9923464540   -0.1719224735
C       -0.6817419203   -0.5152120566   -0.8314740761
C       -1.1208876360    0.1444539636    0.4035339995
C       -0.5155744618    1.0643614405   -0.5774681802
N        0.8511359850    1.3640384229   -0.4322834812
H        2.4094682353    0.2760514932    0.5672089967
H        0.9676417698   -2.0312584433   -0.2585401718
H       -1.0281323970   -0.5692387064   -1.8577873023
H       -2.1438561067    0.2829235744    0.7907042649
H       -1.0936584854    1.7936120486   -1.1700498852
C        0.1870940863   -0.2978933233    1.1029850623
H        0.2112635789   -0.7581032399    2.1059189966
13   
Frame written by nebterpolator, Thu Mar  3 10:04:37 2022
C        1.3291889438    0.2441433940    0.3287214756
C        0.6142632713   -0.9909771980   -0.1769471096
C       -0.6708843045   -0.4930265990   -0.8407715555
C       -1.1143313023    0.1542185000    0.4013777035
C       -0.5038738549    1.0721941598   -0.5935915403
N        0.8559659987    1.3779171947   -0.4156808641
H        2.3931226969    0.2642673690    0.5973709803
H        0.9951686213   -2.0156863197   -0.2884182816
H       -1.0691866322   -0.6244733323   -1.8377255335
H       -2.1360906165    0.2912192286    0.7915078809
H       -1.0893755169    1.8000584383   -1.1792375558
C        0.1792936696   -0.3172292271    1.1025749943
H        0.2167390257   -0.7626256085    2.1108194058
13   
Frame written by nebterpolator, Thu Mar  3 10:04:37 2022
C        1.3207422215    0.2495722653    0.3291018368
C        0.6101979220   -0.9912184780   -0.1819675132
C       -0.6615420801   -0.4709358727   -0.8531625031
C       -1.1088445644    0.1633497341    0.3995227427
C       -0.4925235276    1.0798986376   -0.6105945445
N        0.8609779999    1.3913667712   -0.3992966303
H        2.3757246601    0.2523969818    0.6262580532
H        1.0234693573   -1.9980755492   -0.3182340295
H       -1.1085834697   -0.6785446073   -1.8135020140
H       -2.1275397527    0.2996133259    0.7927923171
H       -1.0841737867    1.8062476325   -1.1877518742
C        0.1714102358   -0.3372873596    1.1022898400
H        0.2206847846   -0.7663834816    2.1145443192
13   
Frame written by nebterpolator, Thu Mar  3 10:04:37 2022
C        1.3132300764    0.2550283380    0.3301717473
C        0.6066372292   -0.9935292723   -0.1871431518
C       -0.6544200019   -0.4497658003   -0.8685719445
C       -1.1048045011    0.1721027042    0.3982521005
C       -0.4816918158    1.0874380878   -0.6286902867
N        0.8663365187    1.4043603244   -0.3830907022
H        2.3568263984    0.2405893410    0.6539939208
H        1.0526805409   -1.9780512809   -0.3479313492
H       -1.1459273525   -0.7310000263   -1.7857380551
H       -2.1177265581    0.3085341126    0.7947073778
H       -1.0778877800    1.8118165508   -1.1954631145
C        0.1633307034   -0.3583681160    1.1025689534
H        0.2234165424   -0.7691549628    2.1169345043
13   
Frame written by nebterpolator, Thu Mar  3 10:04:37 2022
C        1.3062665389    0.2605223291    0.3315912394
C        0.6033796862   -0.9972792520   -0.1924409064
C       -0.6489716163   -0.4295423274   -0.8860027215
C       -1.1016951706    0.1806807527    0.3973889707
C       -0.4712535922    1.0947757826   -0.6475028629
N        0.8719380777    1.4169410516   -0.3670524811
H        2.3368889839    0.2288535266    0.6810152059
H        1.0826092511   -1.9565194505   -0.3774829559
H       -1.1816297569   -0.7820793931   -1.7558165928
H       -2.1070655653    0.3180002914    0.7971832472
H       -1.0709873522    1.8169618089   -1.2025798675
C        0.1550891568   -0.3801134993    1.1031758461
H        0.2254313587   -0.7712016206    2.1185238789
13   
Frame written by nebterpolator, Thu Mar  3 10:04:37 2022
C        1.2996058262    0.2660350258    0.3331908980
C        0.6002727092   -1.0020274838   -0.1978148853
C       -0.6447715862   -0.4101298348   -0.9049914339
C       -1.0991204165    0.1891478011    0.3967577251
C       -0.4610978696    1.1018594116   -0.6667973994
N        0.8776952333    1.4291047430   -0.3511848725
H        2.3162468547    0.2171485101    0.7075669742
H        1.1132013688   -1.9340755772   -0.4069191068
H       -1.2159570787   -0.8319764301   -1.7242774415
H       -2.0959177514    0.3279814911    0.8001986054
H       -1.0637964006    1.8218941947   -1.2092389750
C        0.1467154053   -0.4022628063    1.1038276730
H        0.2269237054   -0.7726990451    2.1196822387
