13   
Frame written by nebterpolator, Thu Mar  3 15:37:34 2022
C        1.4857242514    0.1403985435   -1.0273985024
C        0.3818308775   -1.5373736536    1.3003364506
C       -0.8735670675   -1.1854072571    1.0586365777
C       -1.3831562798    0.0386825458    0.4438302619
C       -0.6664499257    1.0357765302   -0.1158438988
N        0.7426315719    1.1230951540   -0.1453585458
H        1.7994299597   -0.8867779077   -0.9658731112
H        0.8590313472   -2.3840913248    1.7794556900
H       -1.6541406774   -1.8916486756    1.3742144719
H       -2.4631164119    0.1614477774    0.4627803502
H       -1.1821178147    1.9191284392   -0.4938414681
C        1.3845826537    1.3275891906   -1.4932286479
H        1.5693175161    2.1391806379   -2.1777096282
13   
Frame written by nebterpolator, Thu Mar  3 15:37:34 2022
C        1.5025555720    0.1429643347   -0.9745132881
C        0.3833403353   -1.5497829933    1.2624565015
C       -0.8929002356   -1.1784530330    1.0297137553
C       -1.3837876161    0.0302200130    0.4460634258
C       -0.6559705097    1.0596655675   -0.0664824624
N        0.7256402384    1.1507015968   -0.1215810822
H        1.8948332850   -0.8506692857   -0.8437405773
H        0.8686456196   -2.4079478008    1.7304678068
H       -1.6781973501   -1.8822242224    1.3491118565
H       -2.4757379996    0.1536748650    0.4494270485
H       -1.1818360663    1.9635758184   -0.4083866013
C        1.3412920090    1.2911665945   -1.5800746253
H        1.5521227180    2.0771085452   -2.2724617578
13   
Frame written by nebterpolator, Thu Mar  3 15:37:34 2022
C        1.5195379095    0.1641759953   -0.9175326160
C        0.3761151287   -1.5703884002    1.2135064143
C       -0.9038738869   -1.1789762377    1.0034265752
C       -1.3864798275    0.0306891552    0.4467710994
C       -0.6537246983    1.0791249776   -0.0314914662
N        0.7148053464    1.1752137108   -0.1085731298
H        1.9896123887   -0.7864879907   -0.7153721113
H        0.8661035861   -2.4359628114    1.6717743124
H       -1.6924340125   -1.8737920362    1.3358905323
H       -2.4818682752    0.1578528131    0.4520987452
H       -1.1845982639    1.9965156166   -0.3352712297
C        1.3033228880    1.2365117338   -1.6528204608
H        1.5334817168    2.0055234738   -2.3624066650
13   
Frame written by nebterpolator, Thu Mar  3 15:37:34 2022
C        1.5390786857    0.1974817856   -0.8588469232
C        0.3663131050   -1.5965612200    1.1518581624
C       -0.9121332976   -1.1829851710    0.9778009177
C       -1.3929797851    0.0335275692    0.4447513080
C       -0.6574858713    1.0945231346   -0.0072130188
N        0.7052676969    1.1979032727   -0.0976572997
H        2.0741717331   -0.7023274926   -0.5902837592
H        0.8606484703   -2.4627695153    1.6060589698
H       -1.7000269879   -1.8620046614    1.3379168941
H       -2.4883951636    0.1662307143    0.4648533647
H       -1.1908736535    2.0224360755   -0.2722649604
C        1.2813300175    1.1734699079   -1.7114922372
H        1.5150850506    1.9210756005   -2.4454814181
13   
Frame written by nebterpolator, Thu Mar  3 15:37:34 2022
C        1.5581982978    0.2391883272   -0.8009465441
C        0.3549645773   -1.6264516749    1.0754090538
C       -0.9193729979   -1.1888637560    0.9517948531
C       -1.4046823593    0.0353076089    0.4378847967
C       -0.6672443684    1.1056178974    0.0081670607
N        0.6931400910    1.2173921207   -0.0856394387
H        2.1460625675   -0.6062067015   -0.4716409955
H        0.8562326076   -2.4850268763    1.5350099722
H       -1.6997776647   -1.8436262127    1.3605221407
H       -2.4982038614    0.1742817234    0.4840505973
H       -1.2012963918    2.0429466922   -0.2162407751
C        1.2764598408    1.1066710475   -1.7581986627
H        1.5055196615    1.8287698038   -2.5201720585
13   
Frame written by nebterpolator, Thu Mar  3 15:37:34 2022
C        1.5731075627    0.2849180963   -0.7462999815
C        0.3424237451   -1.6552514128    0.9883131065
C       -0.9271825775   -1.1954827843    0.9238175317
C       -1.4235574218    0.0337381770    0.4238313037
C       -0.6829410453    1.1126164921    0.0184694806
N        0.6766348436    1.2307278527   -0.0687805401
H        2.2046435720   -0.5058351241   -0.3619294069
H        0.8558913195   -2.4993554789    1.4597536576
H       -1.6896458853   -1.8177995466    1.4031353957
H       -2.5137520499    0.1784309067    0.5055483291
H       -1.2150939455    2.0598365461   -0.1612446269
C        1.2881109004    1.0392749221   -1.7967757716
H        1.5113609821    1.7341813538   -2.5878384780
13   
Frame written by nebterpolator, Thu Mar  3 15:37:34 2022
C        1.5805142797    0.3313150956   -0.6988646790
C        0.3291712756   -1.6755993296    0.8992274320
C       -0.9370770623   -1.2028044315    0.8925795619
C       -1.4528831401    0.0278703391    0.4003247952
C       -0.7054385971    1.1157703754    0.0288319439
N        0.6561428442    1.2334087580   -0.0425042077
H        2.2493441607   -0.4062660028   -0.2670777385
H        0.8625537137   -2.4997608682    1.3823401106
H       -1.6678158126   -1.7862492300    1.4591896757
H       -2.5381024225    0.1759836611    0.5253799577
H       -1.2309589854    2.0745934191   -0.0983402487
C        1.3165582593    0.9730342260   -1.8308984583
H        1.5379914866    1.6387039880   -2.6501881447
13   
Frame written by nebterpolator, Thu Mar  3 15:37:34 2022
C        1.5778342163    0.3733228051   -0.6649356322
C        0.3166398129   -1.6774128023    0.8174619844
C       -0.9517336747   -1.2107920856    0.8571453968
C       -1.4967958362    0.0174701898    0.3663606061
C       -0.7348327145    1.1140031720    0.0461868418
N        0.6327480706    1.2161884846    0.0000069834
H        2.2799788968   -0.3156971310   -0.1983945703
H        0.8811326704   -2.4738727926    1.3096555344
H       -1.6362536190   -1.7530229768    1.5166693691
H       -2.5754029013    0.1645817206    0.5393224650
H       -1.2449029314    2.0872810474   -0.0166530216
C        1.3618420920    0.9120716420   -1.8638024775
H        1.5897459182    1.5458787267   -2.7090234793
13   
Frame written by nebterpolator, Thu Mar  3 15:37:34 2022
C        1.5652205052    0.4036277581   -0.6509813578
C        0.3065149840   -1.6493370502    0.7541606854
C       -0.9736019302   -1.2183376364    0.8206464074
C       -1.5546954436    0.0028771524    0.3275568799
C       -0.7651938734    1.1060079321    0.0761861987
N        0.6089283063    1.1680443238    0.0613038783
H        2.2964104911   -0.2491145747   -0.1690233767
H        0.9152867415   -2.4079312829    1.2511916131
H       -1.6052329433   -1.7272692549    1.5585484720
H       -2.6263435423    0.1430215135    0.5433383509
H       -1.2473225224    2.0955321250    0.0856884643
C        1.4173869944    0.8666818644   -1.8957069950
H        1.6626422327    1.4661971297   -2.7629092205
13   
Frame written by nebterpolator, Thu Mar  3 15:37:34 2022
C        1.5469270506    0.4181453302   -0.6551097650
C        0.2991331135   -1.5894042431    0.7150727263
C       -1.0003645414   -1.2237023758    0.7898487020
C       -1.6163175388   -0.0115880439    0.2944404100
C       -0.7894870424    1.0888693716    0.1167837527
N        0.5882931522    1.0851420576    0.1328632412
H        2.2997498327   -0.2189087867   -0.1791418515
H        0.9607635394   -2.3036631248    1.2092109365
H       -1.5859286935   -1.7189884719    1.5762556449
H       -2.6830479372    0.1181713316    0.5380273031
H       -1.2317048903    2.0949878857    0.1903484537
C        1.4706381313    0.8473321983   -1.9226605745
H        1.7413458240    1.4136068714   -2.8059389794
13   
Frame written by nebterpolator, Thu Mar  3 15:37:34 2022
C        1.5269693799    0.4158596790   -0.6710174928
C        0.2932355268   -1.5027224441    0.7025053877
C       -1.0275282513   -1.2260239433    0.7717225581
C       -1.6698087828   -0.0227337226    0.2762979811
C       -0.8037026573    1.0597021638    0.1587194139
N        0.5730063158    0.9695536635    0.2003002541
H        2.2899879675   -0.2321542923   -0.2228397653
H        1.0086222318   -2.1741164132    1.1819591730
H       -1.5821180582   -1.7354221171    1.5713816771
H       -2.7347793268    0.1002177767    0.5294719596
H       -1.1956373127    2.0839952949    0.2688256223
C        1.5112869769    0.8614661689   -1.9382729604
H        1.8104659904    1.4023781858   -2.8290538083
13   
Frame written by nebterpolator, Thu Mar  3 15:37:34 2022
C        1.5081549094    0.4000669597   -0.6912891777
C        0.2868137883   -1.4038126801    0.7136977899
C       -1.0510116450   -1.2256056817    0.7706267307
C       -1.7081877252   -0.0310778713    0.2779784247
C       -0.8083961454    1.0220986785    0.1893760223
N        0.5611664887    0.8376699335    0.2483762481
H        2.2696794769   -0.2805152882   -0.2889156944
H        1.0497212620   -2.0428938592    1.1646166998
H       -1.5885506840   -1.7746637561    1.5532452122
H       -2.7734578949    0.0948436904    0.5271524681
H       -1.1443062412    2.0666126959    0.2983772198
C        1.5350668671    0.9033865570   -1.9381348990
H        1.8633075432    1.4338906215   -2.8251070444
13   
Frame written by nebterpolator, Thu Mar  3 15:37:34 2022
C        1.4909505266    0.3762419121   -0.7122177971
C        0.2786628900   -1.3070619035    0.7409416470
C       -1.0696254024   -1.2226695238    0.7874710201
C       -1.7326769965   -0.0373468389    0.2997808733
C       -0.8087584217    0.9820726617    0.2024108719
N        0.5479535802    0.7076058185    0.2716774485
H        2.2451925012   -0.3427871144   -0.3655775952
H        1.0807202306   -1.9290464441    1.1478058426
H       -1.5968968106   -1.8269913782    1.5328775350
H       -2.7986671815    0.1012944489    0.5379495795
H       -1.0883235264    2.0461945651    0.2736737452
C        1.5443530995    0.9579060442   -1.9238995562
H        1.9071155111    1.4945877522   -2.7928936145
13   
Frame written by nebterpolator, Thu Mar  3 15:37:34 2022
C        1.4744044587    0.3510385627   -0.7336766049
C        0.2678597563   -1.2220422231    0.7736560261
C       -1.0854462654   -1.2172601355    0.8227782785
C       -1.7494827217   -0.0438816435    0.3404225452
C       -0.8079591507    0.9438391712    0.1977996279
N        0.5291472188    0.5883808275    0.2718930528
H        2.2244517189   -0.3968809246   -0.4421153926
H        1.1008020053   -1.8421592815    1.1203256024
H       -1.6017407628   -1.8806281852    1.5226462769
H       -2.8152117640    0.1145065251    0.5644944905
H       -1.0348588360    2.0223007391    0.1995301824
C        1.5435751643    1.0148263922   -1.9012621088
H        1.9544591783    1.5679601755   -2.7364919765
13   
Frame written by nebterpolator, Thu Mar  3 15:37:34 2022
C        1.4577391111    0.3319736892   -0.7555748931
C        0.2556933437   -1.1606859296    0.7966305866
C       -1.0986074482   -1.2090348246    0.8756286071
C       -1.7621742441   -0.0491035839    0.3967511883
C       -0.8104283216    0.9081245951    0.1767576426
N        0.5041247258    0.4845264838    0.2501541036
H        2.2130045501   -0.4277259276   -0.5083760274
H        1.1079494271   -1.7900689604    1.0786811094
H       -1.5999413850   -1.9222765940    1.5356819078
H       -2.8263922540    0.1315298434    0.6057343837
H       -0.9941629345    1.9899759269    0.0843376559
C        1.5375416019    1.0716529416   -1.8756684670
H        2.0156538276    1.6411123401   -2.6607377977
13   
Frame written by nebterpolator, Thu Mar  3 15:37:34 2022
C        1.4402747999    0.3273916442   -0.7729860053
C        0.2442645069   -1.1266034841    0.7982132223
C       -1.1069921819   -1.1988144355    0.9371370889
C       -1.7717596057   -0.0492537598    0.4602645365
C       -0.8198422384    0.8746382479    0.1450426003
N        0.4759614293    0.3963832985    0.2114309590
H        2.2078629309   -0.4336322253   -0.5593140994
H        1.1045975272   -1.7686400945    1.0276197242
H       -1.5906604914   -1.9461543287    1.5725474703
H       -2.8339301602    0.1506323695    0.6558940681
H       -0.9743986651    1.9466863005   -0.0499685671
C        1.5295820783    1.1329342296   -1.8483312476
H        2.0950400702    1.6944322377   -2.5775497504
13   
Frame written by nebterpolator, Thu Mar  3 15:37:34 2022
C        1.4271342984    0.3445651260   -0.7750956632
C        0.2316828943   -1.1127688936    0.7786725431
C       -1.1108780817   -1.1884544793    0.9989118164
C       -1.7782472750   -0.0416547727    0.5282751661
C       -0.8339184973    0.8437365338    0.1091631701
N        0.4444435747    0.3176072856    0.1618376298
H        2.2092262559   -0.4154057155   -0.5908253212
H        1.0926026998   -1.7691931037    0.9643808980
H       -1.5767331742   -1.9596669538    1.6196532019
H       -2.8380372415    0.1739657415    0.7138776267
H       -0.9703168017    1.8944951185   -0.1867310022
C        1.5238676508    1.2075260354   -1.8106826280
H        2.1791736976    1.7052480778   -2.5114374374
13   
Frame written by nebterpolator, Thu Mar  3 15:37:34 2022
C        1.4248573198    0.3619070475   -0.7751257571
C        0.2162076041   -1.1098924219    0.7513006392
C       -1.1107293012   -1.1775887576    1.0571534901
C       -1.7814590021   -0.0270712781    0.5914543602
C       -0.8514688896    0.8112347601    0.0663667517
N        0.4070964938    0.2399530010    0.1010556442
H        2.2171315962   -0.3963958178   -0.6161133280
H        1.0731783279   -1.7793678365    0.9024141486
H       -1.5599188421   -1.9604923404    1.6738696134
H       -2.8361870680    0.2041572888    0.7748376360
H       -0.9764390742    1.8331143276   -0.3178671904
C        1.5351286948    1.2837023287   -1.7576418562
H        2.2426021406    1.7167396985   -2.4517041518
13   
Frame written by nebterpolator, Thu Mar  3 15:37:34 2022
C        1.4263503957    0.3646292132   -0.7878755861
C        0.1997212037   -1.1124351015    0.7243474946
C       -1.1070993221   -1.1657006289    1.1087886847
C       -1.7829467980   -0.0123964100    0.6384473286
C       -0.8724089849    0.7747486015    0.0152503663
N        0.3658197645    0.1621909557    0.0283537749
H        2.2254154478   -0.3888714550   -0.6461620283
H        1.0522075482   -1.7888464449    0.8558457382
H       -1.5386146166   -1.9441845764    1.7391937900
H       -2.8281356025    0.2377899915    0.8328937769
H       -0.9906933377    1.7670042989   -0.4366267685
C        1.5571649118    1.3458368462   -1.7003033900
H        2.2932193900    1.7602347098   -2.3721531813
13   
Frame written by nebterpolator, Thu Mar  3 15:37:34 2022
C        1.4295988522    0.3622221715   -0.8087165521
C        0.1825038410   -1.1174045331    0.6971797869
C       -1.1021596251   -1.1530201938    1.1561514508
C       -1.7830411829    0.0016067269    0.6772092247
C       -0.8940370701    0.7371823930   -0.0384607093
N        0.3233691582    0.0843690658   -0.0500416054
H        2.2357803200   -0.3796309547   -0.6766837063
H        1.0288966258   -1.7969901857    0.8173282974
H       -1.5152452711   -1.9198853211    1.8075872218
H       -2.8156404867    0.2733957023    0.8893261781
H       -1.0081411207    1.6977924168   -0.5455123655
C        1.5785001391    1.3960125172   -1.6440468853
H        2.3396158203    1.8143501950   -2.2813203359
13   
Frame written by nebterpolator, Thu Mar  3 15:37:34 2022
C        1.4394442610    0.3649620133   -0.8343849961
C        0.1639100808   -1.1224929674    0.6688710912
C       -1.0985334685   -1.1403712941    1.2059641024
C       -1.7822872624    0.0183985249    0.7220507838
C       -0.9137218517    0.7024833780   -0.0918295297
N        0.2820549193    0.0063156003   -0.1272837992
H        2.2542222487   -0.3523359476   -0.7044093675
H        0.9957228985   -1.8043755039    0.7755890770
H       -1.4936121630   -1.8977112968    1.8694459220
H       -2.7986403232    0.3116469099    0.9487068212
H       -1.0245215360    1.6189797310   -0.6519096749
C        1.5943048934    1.4346907237   -1.5890019243
H        2.3816573030    1.8598101287   -2.1918085059
