13   
Frame written by nebterpolator, Tue Mar  1 16:57:30 2022
C        1.3472515847    0.8471269015   -0.5704831078
C        0.2493269033   -1.4171693927   -0.2298456718
C       -0.9303587591   -1.0642376942    0.3544671919
C       -1.3751082017    0.2694510511    0.6690993065
C       -0.7124542785    1.4634158877    0.4565457979
N        0.4890174313    1.7744295363   -0.0849378111
H        2.2578093568    1.3015884455   -0.9674658055
H        0.4258924868   -2.4781684505   -0.3950965960
H       -1.6167315406   -1.8670413326    0.6160883127
H       -2.3535799602    0.3520229829    1.1361447548
H       -1.2541165101    2.3528849344    0.7859345114
C        1.3014963144   -0.5317091505   -0.6595939709
H        2.1715551728   -1.0025937188   -1.1108569119
13   
Frame written by nebterpolator, Tue Mar  1 16:57:30 2022
C        1.3723234050    0.8484533948   -0.5160244085
C        0.2443105734   -1.4390819003   -0.1787650924
C       -0.9239241502   -1.0630842098    0.4011900091
C       -1.3812790373    0.2640666335    0.6284463682
C       -0.7097997730    1.4468738435    0.4337858006
N        0.5244294554    1.7389130416   -0.0029017627
H        2.3135715820    1.3069240803   -0.8130737155
H        0.4490175826   -2.5059722043   -0.3216186305
H       -1.6029345535   -1.8611392264    0.7242472995
H       -2.3869115514    0.3596902966    1.0531912554
H       -1.2707370263    2.3506405695    0.7118076365
C        1.2931968478   -0.4846561749   -0.7720750720
H        2.0787366457   -0.9616281440   -1.3482096878
13   
Frame written by nebterpolator, Tue Mar  1 16:57:30 2022
C        1.3984147763    0.8462419837   -0.4655741727
C        0.2488021192   -1.4591893785   -0.1305232710
C       -0.9166645457   -1.0664357764    0.4450395364
C       -1.3907317023    0.2584688275    0.5907955214
C       -0.7094905602    1.4357570005    0.4117866138
N        0.5595483495    1.7094956008    0.0764005445
H        2.3740928153    1.2857308129   -0.6559462891
H        0.4857161874   -2.5252373484   -0.2437377405
H       -1.5831705317   -1.8548092140    0.8230528391
H       -2.4165028371    0.3633881876    0.9717781084
H       -1.2834207856    2.3491488012    0.6384762222
C        1.2675609885   -0.4355045247   -0.8861068924
H        1.9658457262   -0.9070549723   -1.5754410202
13   
Frame written by nebterpolator, Tue Mar  1 16:57:30 2022
C        1.4231414767    0.8414865265   -0.4272929922
C        0.2543406802   -1.4806242838   -0.0830635362
C       -0.9132348557   -1.0723498260    0.4814007340
C       -1.4008107028    0.2517134772    0.5532156015
C       -0.7086590506    1.4249527894    0.3902822455
N        0.5895836824    1.6786543165    0.1501904139
H        2.4340539069    1.2371831971   -0.4943200037
H        0.5315363492   -2.5412222411   -0.1578824580
H       -1.5660215708   -1.8456200445    0.9144197040
H       -2.4407929143    0.3642717542    0.8962429286
H       -1.2881204162    2.3465778922    0.5699331872
C        1.2396910295   -0.3729861148   -1.0036301102
H        1.8452923856   -0.8320374430   -1.7894957144
13   
Frame written by nebterpolator, Tue Mar  1 16:57:30 2022
C        1.4470196444    0.8357196993   -0.4034242573
C        0.2563233556   -1.5058140412   -0.0310773171
C       -0.9171835238   -1.0807234947    0.5086473670
C       -1.4117535358    0.2434067724    0.5139430140
C       -0.7057963546    1.4110197472    0.3705274727
N        0.6137962159    1.6405211497    0.2171146291
H        2.4845011836    1.1600776981   -0.3328768139
H        0.5800321866   -2.5554662217   -0.0614363498
H       -1.5577890369   -1.8317308262    0.9970093716
H       -2.4604147674    0.3638532806    0.8274917923
H       -1.2820436911    2.3413952780    0.5104064132
C        1.2219040542   -0.2911151936   -1.1266470778
H        1.7314042693   -0.7311438477   -1.9896782439
13   
Frame written by nebterpolator, Tue Mar  1 16:57:30 2022
C        1.4725298604    0.8267826724   -0.3882837353
C        0.2531907058   -1.5341522991    0.0288644378
C       -0.9304670532   -1.0914122226    0.5281113202
C       -1.4258401256    0.2336735530    0.4732385967
C       -0.7013155401    1.3922162406    0.3531921360
N        0.6340999576    1.5913539722    0.2751449061
H        2.5192789182    1.0550593849   -0.1823618432
H        0.6242297396   -2.5675869635    0.0438619332
H       -1.5622364753   -1.8132471038    1.0690371788
H       -2.4786477979    0.3631881565    0.7666634793
H       -1.2648139695    2.3335525323    0.4624416879
C        1.2209495055   -0.1897671307   -1.2531267765
H        1.6390422743   -0.5996607922   -2.1767833209
13   
Frame written by nebterpolator, Tue Mar  1 16:57:30 2022
C        1.5004769742    0.8096606647   -0.3771527382
C        0.2430251307   -1.5632962485    0.0954156603
C       -0.9540407575   -1.1032806471    0.5416802854
C       -1.4454659720    0.2231702272    0.4322334985
C       -0.6963474949    1.3680470247    0.3383831394
N        0.6509632529    1.5297507379    0.3229061188
H        2.5382122266    0.9272811930   -0.0525214598
H        0.6584261399   -2.5773083390    0.1540576868
H       -1.5805019856   -1.7911584722    1.1309080753
H       -2.4991543351    0.3630245305    0.7157859384
H       -1.2376224453    2.3236064887    0.4275122964
C        1.2406997997   -0.0731743951   -1.3782821746
H        1.5813294666   -0.4363227648   -2.3509263267
13   
Frame written by nebterpolator, Tue Mar  1 16:57:30 2022
C        1.5394657788    0.8099803181   -0.3803339792
C        0.2111156852   -1.6143096029    0.1642236498
C       -0.9876666801   -1.1278717383    0.5580596732
C       -1.4681975840    0.2117811264    0.3929689033
C       -0.6893662577    1.3417810418    0.3254687515
N        0.6670757516    1.4684440379    0.3591301806
H        2.5426797943    0.7880639967    0.0528531801
H        0.6597797424   -2.6017056732    0.2564851230
H       -1.6102290928   -1.7685884010    1.1920384257
H       -2.5206250884    0.3647121297    0.6687040494
H       -1.2037438821    2.3101453306    0.4068672837
C        1.2892243304    0.0590284433   -1.4947036284
H        1.5704875025   -0.2414610092   -2.5017616126
13   
Frame written by nebterpolator, Tue Mar  1 16:57:30 2022
C        1.5890424265    0.8186138838   -0.3937797479
C        0.1631461421   -1.6757150578    0.2318199183
C       -1.0299899929   -1.1606065723    0.5747022968
C       -1.4941684781    0.1984432252    0.3545035689
C       -0.6793473752    1.3153981083    0.3168409032
N        0.6777017023    1.4077387009    0.3902136073
H        2.5362526627    0.6391306606    0.1246449633
H        0.6382139380   -2.6322996627    0.3499343007
H       -1.6466192416   -1.7456138000    1.2514534475
H       -2.5444139412    0.3656850996    0.6217784950
H       -1.1638655690    2.2945133384    0.4012623784
C        1.3580932223    0.2001707697   -1.5968758792
H        1.5959545040   -0.0254586936   -2.6264982523
13   
Frame written by nebterpolator, Tue Mar  1 16:57:30 2022
C        1.6251482429    0.7717989753   -0.4011558920
C        0.1283251322   -1.6909288043    0.2991378573
C       -1.0778696104   -1.1743828831    0.5771215932
C       -1.5301591339    0.1895091978    0.3189273965
C       -0.6736792876    1.2802991446    0.3158359226
N        0.6779025320    1.3169676764    0.4154173657
H        2.5189829803    0.4630992711    0.1539249497
H        0.6371800390   -2.6235623858    0.4446224092
H       -1.6903267218   -1.7223771766    1.2856442446
H       -2.5767197331    0.3676129612    0.5918231485
H       -1.1146147604    2.2775515185    0.4114476819
C        1.4303520380    0.3371237285   -1.6821901528
H        1.6454782828    0.2072887764   -2.7305565243
13   
Frame written by nebterpolator, Tue Mar  1 16:57:30 2022
C        1.6500865984    0.6994214964   -0.4131287459
C        0.0965579646   -1.6800955672    0.3595785787
C       -1.1275962999   -1.1796184584    0.5742049776
C       -1.5709125267    0.1852264965    0.2897758540
C       -0.6703436373    1.2401783126    0.3190318237
N        0.6748302980    1.2080714020    0.4319933055
H        2.4909954421    0.2733762709    0.1483495250
H        0.6401766047   -2.5914196088    0.5256182130
H       -1.7372650788   -1.7042138365    1.3032855880
H       -2.6127330836    0.3729427978    0.5747031194
H       -1.0583859603    2.2575789120    0.4329142533
C        1.5062695446    0.4689466137   -1.7453733735
H        1.7183201343    0.4496051690   -2.8009531187
13   
Frame written by nebterpolator, Tue Mar  1 16:57:30 2022
C        1.6681596007    0.6182656345   -0.4338381537
C        0.0626833090   -1.6553375021    0.4091256281
C       -1.1783117523   -1.1821335661    0.5699235591
C       -1.6134103306    0.1842311971    0.2676268390
C       -0.6665511823    1.1978340284    0.3254571323
N        0.6697097971    1.0869659489    0.4426258798
H        2.4524242244    0.0759531324    0.1084707892
H        0.6398153384   -2.5461705811    0.5860859035
H       -1.7847104107   -1.6932668134    1.3108819381
H       -2.6499359109    0.3825254257    0.5647156149
H       -0.9947718795    2.2338905290    0.4628261232
C        1.5847378345    0.5982095354   -1.7835413430
H        1.8101613621    0.6990330312   -2.8303599105
13   
Frame written by nebterpolator, Tue Mar  1 16:57:30 2022
C        1.6694717342    0.5200905004   -0.4611294489
C        0.0345812434   -1.6061570822    0.4422316475
C       -1.2261579386   -1.1752791361    0.5619294854
C       -1.6570940621    0.1896404767    0.2568423046
C       -0.6648833132    1.1534105312    0.3338404317
N        0.6626238220    0.9486660828    0.4448913271
H        2.4027778929   -0.1231044755    0.0389468755
H        0.6451085261   -2.4803870564    0.6212249623
H       -1.8297802929   -1.6926726492    1.3027792750
H       -2.6869402655    0.3993437296    0.5704812653
H       -0.9238639989    2.2071928283    0.4959025444
C        1.6583731764    0.7162762450   -1.7938511693
H        1.9157834762    0.9429800054   -2.8140895006
13   
Frame written by nebterpolator, Tue Mar  1 16:57:30 2022
C        1.6436673952    0.4020648507   -0.4924780180
C        0.0192611341   -1.5258168834    0.4507947811
C       -1.2672660988   -1.1532836348    0.5486704657
C       -1.7012716394    0.2029862853    0.2618596009
C       -0.6675943387    1.1093151438    0.3401762815
N        0.6536419152    0.7910118479    0.4336532570
H        2.3438988095   -0.3113187452   -0.0457783589
H        0.6631209952   -2.3894303085    0.6262788133
H       -1.8671593722   -1.7039734245    1.2764563812
H       -2.7209867803    0.4247653074    0.6027513926
H       -0.8468524741    2.1793434335    0.5244933828
C        1.7188009041    0.8125326977   -1.7754550657
H        2.0287395503    1.1618034302   -2.7514229136
13   
Frame written by nebterpolator, Tue Mar  1 16:57:30 2022
C        1.6202163203    0.3039920275   -0.5293531152
C       -0.0003196687   -1.4464424126    0.4456085372
C       -1.3083415282   -1.1345687643    0.5361720924
C       -1.7396987480    0.2173859332    0.2777518555
C       -0.6647463150    1.0667759085    0.3504512234
N        0.6366077789    0.6263178577    0.4198016343
H        2.2728507133   -0.4938802842   -0.1701905024
H        0.6721140053   -2.3002416402    0.6056193658
H       -1.9049161074   -1.7285798023    1.2375083941
H       -2.7492401039    0.4577763323    0.6380464411
H       -0.7598389912    2.1466214506    0.5534394576
C        1.7764575084    0.9145971215   -1.7256365609
H        2.1488551362    1.3702462722   -2.6392188228
13   
Frame written by nebterpolator, Tue Mar  1 16:57:30 2022
C        1.6126268821    0.2423905564   -0.5667610245
C       -0.0310153082   -1.3839215453    0.4338078741
C       -1.3523441731   -1.1264597160    0.5257180681
C       -1.7673233539    0.2304277973    0.3056965670
C       -0.6514395633    1.0252169647    0.3702397668
N        0.6067417242    0.4623810619    0.4053037050
H        2.1849336665   -0.6608162123   -0.3567058748
H        0.6607755597   -2.2302184671    0.5592528761
H       -1.9517259482   -1.7686714890    1.1787179107
H       -2.7680909857    0.5000167861    0.6692535759
H       -0.6609482359    2.1075460321    0.5834999469
C        1.8387417443    1.0369590985   -1.6332916966
H        2.2790679916    1.5651491326   -2.4747316947
13   
Frame written by nebterpolator, Tue Mar  1 16:57:30 2022
C        1.5952712648    0.1998363992   -0.5991187673
C       -0.0652008473   -1.3327950254    0.3984402315
C       -1.3965632908   -1.1181773587    0.5182252753
C       -1.7857797354    0.2450364139    0.3597469948
C       -0.6345396188    0.9856966749    0.3912478901
N        0.5640991477    0.2992634919    0.3656260326
H        2.0882412455   -0.7743944126   -0.5762489609
H        0.6321676346   -2.1823800343    0.4667889436
H       -2.0049659510   -1.8192475822    1.0974821332
H       -2.7726950650    0.5544875678    0.7283729831
H       -0.5549128131    2.0666026812    0.5978249779
C        1.9039594468    1.1628139166   -1.4879353217
H        2.4309185820    1.7132572676   -2.2604524121
13   
Frame written by nebterpolator, Tue Mar  1 16:57:30 2022
C        1.5585031196    0.1833658660   -0.6348363306
C       -0.1101184598   -1.3099011072    0.3217171961
C       -1.4387005914   -1.1140042483    0.5295381884
C       -1.7932366788    0.2561817837    0.4518252581
C       -0.6204991439    0.9528840901    0.3995086823
N        0.5069015880    0.1618314003    0.2758989825
H        2.0238612996   -0.8027549310   -0.7620710382
H        0.5710940989   -2.1741192593    0.3009037963
H       -2.0570085940   -1.8677403286    1.0259292621
H       -2.7558175109    0.6133459367    0.8384732072
H       -0.4602159273    2.0304789452    0.5724840278
C        1.9607747385    1.2703527640   -1.3196943413
H        2.6144620613    1.8000790886   -1.9996768906
13   
Frame written by nebterpolator, Tue Mar  1 16:57:30 2022
C        1.5290795408    0.1873970760   -0.6693272696
C       -0.1607407107   -1.3031725226    0.2243941647
C       -1.4690121928   -1.1174198602    0.5551123382
C       -1.7842695232    0.2583208212    0.5687665263
C       -0.6132961020    0.9296686397    0.3951491950
N        0.4402659160    0.0683209925    0.1543519150
H        2.0039780934   -0.7811267247   -0.8892149058
H        0.4872669469   -2.1823209766    0.0993507907
H       -2.1011846851   -1.9077794702    0.9688446524
H       -2.7182922789    0.6573612832    0.9799625379
H       -0.3990012503    2.0041033919    0.5107227709
C        2.0038473100    1.3449973721   -1.1676896528
H        2.7813589360    1.8416499776   -1.7304230628
13   
Frame written by nebterpolator, Tue Mar  1 16:57:30 2022
C        1.5220561621    0.2042085022   -0.6901753283
C       -0.2142193680   -1.2984748535    0.1222578588
C       -1.4860179315   -1.1306320026    0.5840328665
C       -1.7560091836    0.2532237443    0.6990448730
C       -0.6135743089    0.9147403295    0.3834375885
N        0.3630586318    0.0102560309    0.0150155403
H        2.0117181705   -0.7382080846   -0.9757578031
H        0.3889002768   -2.1829085515   -0.1089609916
H       -2.1368075982   -1.9394796689    0.9166763762
H       -2.6617574884    0.6838660955    1.1308649165
H       -0.3740016247    1.9844700425    0.4263028811
C        2.0486531164    1.3939967249   -1.0166312180
H        2.9080011458    1.8449416913   -1.4861075600
13   
Frame written by nebterpolator, Tue Mar  1 16:57:30 2022
C        1.5317255290    0.2376008110   -0.7058510518
C       -0.2661708968   -1.2894039169    0.0255619877
C       -1.4974192795   -1.1576099233    0.6166321554
C       -1.7179380266    0.2386753642    0.8308818696
C       -0.6150406583    0.9095371783    0.3636120392
N        0.2783286197   -0.0241192553   -0.1324488425
H        2.0513695093   -0.6709919295   -1.0219191142
H        0.2800769561   -2.1626205416   -0.3019132956
H       -2.1681105839   -1.9672948660    0.8706713154
H       -2.5907345715    0.6946207048    1.2788532861
H       -0.3732155450    1.9614147827    0.3314674983
C        2.0834008902    1.4231670794   -0.8718891831
H        3.0037280572    1.8070245123   -1.2836586644
