13   
Frame written by nebterpolator, Wed Mar  2 21:50:42 2022
C        1.5716783180    0.3989309435   -0.4775925785
C        1.2450735921   -0.9105411304   -0.1791091331
C       -0.0290881275   -1.4371880166    0.2393437652
C       -1.3727347365    0.6809606595    0.2509144424
C       -0.4441272494    1.6245769181   -0.1461701627
N        0.8658173121    1.5538657580   -0.4802257371
H        2.6109892053    0.5554258812   -0.7749337823
H        2.0544341133   -1.6304843322   -0.2739414599
H       -0.0620061770   -2.5095789697    0.4210025955
H       -2.3717034157    1.0600360688    0.4526484073
H       -0.8270440457    2.6455119117   -0.2102187527
C       -1.1823404522   -0.7359821613    0.4290109163
H       -2.0589483362   -1.2955335303    0.7492714800
13   
Frame written by nebterpolator, Wed Mar  2 21:50:42 2022
C        1.5702365535    0.4275204050   -0.4076757209
C        1.2106989691   -0.9170628267   -0.2011378606
C       -0.0371659201   -1.4165817421    0.1676653288
C       -1.3569731507    0.6503664581    0.2252651938
C       -0.4389039716    1.6058675707   -0.1920726548
N        0.8711415828    1.5496903255   -0.4533564539
H        2.6279259506    0.5743591177   -0.6525993129
H        2.0154903450   -1.6478737502   -0.3451313537
H       -0.1201140454   -2.4979767519    0.2847037586
H       -2.3754963311    1.0010989120    0.3925553125
H       -0.8364385103    2.6254646323   -0.3001920608
C       -1.1420341959   -0.6856459488    0.5572323686
H       -1.9883672758   -1.2692264017    0.9247434554
13   
Frame written by nebterpolator, Wed Mar  2 21:50:42 2022
C        1.5766968440    0.4484196674   -0.3421582838
C        1.1862631065   -0.9303198348   -0.2302629587
C       -0.0559819810   -1.4046768307    0.1015645630
C       -1.3475259792    0.6235235735    0.2028716361
C       -0.4399048498    1.5921175151   -0.2343157510
N        0.8761475334    1.5543403087   -0.4248589706
H        2.6447865392    0.5950918638   -0.5257652176
H        1.9787888051   -1.6645387654   -0.4195510676
H       -0.1882910874   -2.4859783432    0.1540770376
H       -2.3829591557    0.9442595674    0.3294734103
H       -0.8518954984    2.6019250436   -0.3901353438
C       -1.0898819645   -0.6389335021    0.6798301588
H       -1.9062423123   -1.2352302634    1.0992307871
13   
Frame written by nebterpolator, Wed Mar  2 21:50:42 2022
C        1.5815425306    0.4595080729   -0.2825077167
C        1.1658283747   -0.9401700359   -0.2643667420
C       -0.0816487872   -1.3894042518    0.0413221810
C       -1.3384893382    0.5931794001    0.1804318363
C       -0.4423542375    1.5787908788   -0.2729099011
N        0.8783441189    1.5595994610   -0.3952690348
H        2.6575452117    0.6098974260   -0.3987363191
H        1.9454327001   -1.6761107073   -0.4919474945
H       -0.2689823178   -2.4646126899    0.0294517973
H       -2.3908534958    0.8762776264    0.2610638386
H       -0.8664814200    2.5774184898   -0.4712132081
C       -1.0297818352   -0.5884939819    0.7948960273
H       -1.8101015042   -1.1958796882    1.2697847358
13   
Frame written by nebterpolator, Wed Mar  2 21:50:42 2022
C        1.5772988385    0.4530852413   -0.2322197073
C        1.1479589224   -0.9363891518   -0.2979006976
C       -0.1110296352   -1.3622041052   -0.0158598631
C       -1.3272026657    0.5552907935    0.1559627345
C       -0.4456949153    1.5641210820   -0.3067605254
N        0.8763174375    1.5559990661   -0.3688101725
H        2.6598076875    0.6077069429   -0.2772276154
H        1.9175691867   -1.6757916029   -0.5519217496
H       -0.3613532979   -2.4246530566   -0.0922160462
H       -2.3957795164    0.7865232824    0.1865532402
H       -0.8761650120    2.5554473364   -0.5323607240
C       -0.9640940943   -0.5274977422    0.9025181864
H       -1.6976329358   -1.1516380859    1.4302429400
13   
Frame written by nebterpolator, Wed Mar  2 21:50:42 2022
C        1.5627752612    0.4203014131   -0.1924338447
C        1.1348788294   -0.9145093880   -0.3235244975
C       -0.1399140290   -1.3208728860   -0.0756511371
C       -1.3126604474    0.5101366314    0.1322475619
C       -0.4513293011    1.5514831695   -0.3361667367
N        0.8661391883    1.5438917750   -0.3524411058
H        2.6495936536    0.5776023372   -0.1636692162
H        1.8972696196   -1.6613185178   -0.5925777591
H       -0.4553041315   -2.3649703699   -0.2137291421
H       -2.3939263398    0.6735126851    0.1132105302
H       -0.8835833387    2.5401863595   -0.5711300296
C       -0.8983560121   -0.4515579436    1.0046881982
H       -1.5755829525   -1.1038852654    1.5711771783
13   
Frame written by nebterpolator, Wed Mar  2 21:50:42 2022
C        1.5488636297    0.4008654259   -0.1511706302
C        1.1212574898   -0.9096761568   -0.3504723671
C       -0.1763679409   -1.2873571622   -0.1451177033
C       -1.2922852460    0.4601066384    0.1124160801
C       -0.4583403760    1.5397277311   -0.3727394188
N        0.8558931417    1.5391577817   -0.3401064218
H        2.6306495440    0.5584273686   -0.0481581716
H        1.8773443090   -1.6602389369   -0.6217514482
H       -0.5548797625   -2.3052191304   -0.3249916839
H       -2.3803984368    0.5494222682    0.0601815516
H       -0.8960228895    2.5239110014   -0.6140414193
C       -0.8336221496   -0.3611406695    1.0982580824
H       -1.4420913127   -1.0479861596    1.6976935502
13   
Frame written by nebterpolator, Wed Mar  2 21:50:42 2022
C        1.5273677283    0.3905126859   -0.1072823135
C        1.0983448742   -0.9192840466   -0.3736403564
C       -0.2074753933   -1.2651891724   -0.2259455073
C       -1.2663024525    0.4114717669    0.0961373867
C       -0.4670734943    1.5308065498   -0.4140675389
N        0.8442201382    1.5378023274   -0.3301356336
H        2.5988720406    0.5447325258    0.0704875443
H        1.8542430680   -1.6707377253   -0.6395890555
H       -0.6393280443   -2.2571182602   -0.4322840363
H       -2.3569981473    0.4206610937    0.0225573358
H       -0.9122588102    2.5095881492   -0.6616684975
C       -0.7734848738   -0.2556003424    1.1808366142
H       -1.3001266335   -0.9776455520    1.8145940580
13   
Frame written by nebterpolator, Wed Mar  2 21:50:42 2022
C        1.4951305551    0.3770552159   -0.0600743293
C        1.0775986778   -0.9356256718   -0.3919884603
C       -0.2362974551   -1.2563907396   -0.3168284742
C       -1.2375423714    0.3690551012    0.0856327321
C       -0.4796363209    1.5263454328   -0.4584228570
N        0.8271490263    1.5371916341   -0.3272016488
H        2.5509249143    0.5285470596    0.1950501564
H        1.8396455323   -1.6839990649   -0.6473651543
H       -0.7055440748   -2.2284508609   -0.5388529969
H       -2.3258367834    0.2953406523    0.0018102242
H       -0.9329828781    2.4991883878   -0.7131074058
C       -0.7199154073   -0.1405947769    1.2476753729
H       -1.1526934148   -0.8876623698    1.9236728411
13   
Frame written by nebterpolator, Wed Mar  2 21:50:42 2022
C        1.4488613429    0.3587528891   -0.0054087504
C        1.0591825723   -0.9604516433   -0.4057989683
C       -0.2575847773   -1.2676152169   -0.4144547713
C       -1.2092498972    0.3401184664    0.0801177909
C       -0.4971629947    1.5280375522   -0.5032056544
N        0.8045206972    1.5374595450   -0.3301581400
H        2.4837753490    0.5090404181    0.3256104865
H        1.8353239005   -1.6975115685   -0.6513944194
H       -0.7437621952   -2.2302359869   -0.6441495581
H       -2.2898727322    0.1854160513   -0.0072434147
H       -0.9585288277    2.4933196273   -0.7691697025
C       -0.6707011140   -0.0224017285    1.2989834083
H       -1.0048013237   -0.7739284052    2.0262716933
13   
Frame written by nebterpolator, Wed Mar  2 21:50:42 2022
C        1.3860420347    0.3417541331    0.0611450636
C        1.0440268825   -0.9973761461   -0.4193676267
C       -0.2687334526   -1.3089351814   -0.5130688716
C       -1.1860624160    0.3315075431    0.0828162031
C       -0.5170356709    1.5339771039   -0.5454905062
N        0.7801413199    1.5374405176   -0.3381296292
H        2.3956839997    0.4925672543    0.4609408146
H        1.8438074350   -1.7087334140   -0.6585044623
H       -0.7463849274   -2.2748592811   -0.7424512893
H       -2.2561936573    0.1094846261   -0.0055851668
H       -0.9867845326    2.4876320152   -0.8343684149
C       -0.6228010094    0.0906704693    1.3318254666
H       -0.8657060055   -0.6351296401    2.1202384193
13   
Frame written by nebterpolator, Wed Mar  2 21:50:42 2022
C        1.3017914270    0.3136829161    0.1338173015
C        1.0367931115   -1.0326424197   -0.4285804982
C       -0.2588972530   -1.3862316127   -0.6010871879
C       -1.1792437764    0.3567197820    0.1035106481
C       -0.5356104274    1.5461662707   -0.5759125823
N        0.7604888171    1.5274752872   -0.3626686229
H        2.2859680797    0.4661637354    0.5932749699
H        1.8751078509   -1.6971874365   -0.6690314414
H       -0.6914326453   -2.3731843075   -0.8282415465
H       -2.2428252359    0.0987039358    0.0105261536
H       -1.0100593032    2.4837845664   -0.9037633701
C       -0.5812502638    0.1820020487    1.3361526391
H       -0.7608303812   -0.4854527659    2.1920035372
13   
Frame written by nebterpolator, Wed Mar  2 21:50:42 2022
C        1.2093045559    0.2762842997    0.1974081581
C        1.0642789719   -1.0524582183   -0.4329041753
C       -0.2534296812   -1.4966568800   -0.6581232169
C       -1.2033022110    0.4240835598    0.1373607180
C       -0.5455167394    1.5595623898   -0.5924436827
N        0.7520398003    1.4942307195   -0.4065779502
H        2.1682962709    0.4388878743    0.7037093769
H        1.9447777306   -1.6435304066   -0.6862136234
H       -0.6121842820   -2.5092617433   -0.8831380743
H       -2.2714556602    0.1925617529    0.0478798235
H       -1.0105369066    2.4833211331   -0.9676382011
C       -0.5444814001    0.2156994389    1.3152405341
H       -0.6977904490   -0.3827239197    2.2254403133
13   
Frame written by nebterpolator, Wed Mar  2 21:50:42 2022
C        1.1204821706    0.2493671838    0.2464391489
C        1.0503630908   -1.0754885375   -0.4343694500
C       -0.1889859243   -1.6157074518   -0.6685683326
C       -1.2397577169    0.5153015479    0.1661558239
C       -0.5437366174    1.5790091601   -0.5955556767
N        0.7525593557    1.4586984496   -0.4370676181
H        2.0625319704    0.4098102748    0.7863462461
H        1.9764496464   -1.5805092589   -0.7210774496
H       -0.4696683815   -2.6505302099   -0.9038420104
H       -2.3178984966    0.3392364104    0.0781759992
H       -0.9876294358    2.4899085525   -1.0226257758
C       -0.5297874904    0.2170260926    1.2839856235
H       -0.6849221712   -0.3361222136    2.2220034715
13   
Frame written by nebterpolator, Wed Mar  2 21:50:42 2022
C        1.0440574515    0.2250633779    0.2766271900
C        1.0493024717   -1.0911960972   -0.4315507092
C       -0.1264550854   -1.7363213896   -0.6491545623
C       -1.2782013686    0.6123509446    0.1938829050
C       -0.5363543880    1.5991487079   -0.5964864042
N        0.7548947394    1.4163884530   -0.4706733223
H        1.9649492254    0.3899932232    0.8507823463
H        2.0078631707   -1.5029804374   -0.7592711753
H       -0.3369030639   -2.7824935088   -0.8980855112
H       -2.3651748797    0.5126197011    0.1227334118
H       -0.9507764369    2.5014308041   -1.0687491697
C       -0.5311461227    0.1953974268    1.2412559986
H       -0.6960557136   -0.3394012056    2.1886890026
13   
Frame written by nebterpolator, Wed Mar  2 21:50:42 2022
C        0.9746804760    0.2016036721    0.2945024223
C        1.0555284757   -1.1056502865   -0.4244225887
C       -0.0580355847   -1.8545435669   -0.6106083682
C       -1.3112866627    0.7097279903    0.2199383524
C       -0.5272622488    1.6204095610   -0.5979737288
N        0.7545996537    1.3724201658   -0.5052675700
H        1.8707681854    0.3765345888    0.9044978947
H        2.0334683468   -1.4228876121   -0.7964292545
H       -0.2073614271   -2.9040075453   -0.8805399162
H       -2.4023776680    0.6905353681    0.1775919697
H       -0.9093411573    2.5159917363   -1.1091657171
C       -0.5460771068    0.1688320569    1.1921569495
H       -0.7273032823   -0.3689661285    2.1357195548
13   
Frame written by nebterpolator, Wed Mar  2 21:50:42 2022
C        0.9095521782    0.1778984120    0.3041556458
C        1.0647003721   -1.1202978184   -0.4137150614
C        0.0200565483   -1.9697998927   -0.5590701394
C       -1.3378152916    0.8050272791    0.2446274282
C       -0.5179507814    1.6427453463   -0.6006374032
N        0.7505646545    1.3291643930   -0.5397274162
H        1.7776755099    0.3663629808    0.9507232351
H        2.0505152915   -1.3456182535   -0.8302877475
H       -0.0741643045   -3.0163893334   -0.8579306228
H       -2.4272297837    0.8647688890    0.2403805732
H       -0.8676969728    2.5322678479   -1.1453739531
C       -0.5717823474    0.1446802314    1.1389810259
H       -0.7764250731   -0.4108100815    2.0678744355
13   
Frame written by nebterpolator, Wed Mar  2 21:50:42 2022
C        0.8464133025    0.1539901195    0.3080902228
C        1.0734716022   -1.1364614376   -0.4006925309
C        0.1087102454   -2.0806234772   -0.4986353713
C       -1.3582881170    0.8967113632    0.2682586155
C       -0.5088236705    1.6665436327   -0.6040243825
N        0.7425690917    1.2880116534   -0.5735501594
H        1.6842605466    0.3576300267    0.9905766856
H        2.0576605729   -1.2754461368   -0.8596107119
H        0.0666646704   -3.1196274885   -0.8309033049
H       -2.4398760947    1.0314001577    0.3093201592
H       -0.8275373622    2.5502542308   -1.1772717460
C       -0.6051375777    0.1255356374    1.0822801147
H       -0.8400872097   -0.4579182814    1.9861624089
13   
Frame written by nebterpolator, Wed Mar  2 21:50:42 2022
C        0.7831158791    0.1305544370    0.3075636712
C        1.0799996717   -1.1565223362   -0.3870560282
C        0.2074999288   -2.1840304875   -0.4346238521
C       -1.3741696003    0.9820047603    0.2922484298
C       -0.4986457545    1.6930069235   -0.6075968874
N        0.7300368312    1.2508144163   -0.6073765384
H        1.5885681548    0.3494997167    1.0236681387
H        2.0541969300   -1.2167814936   -0.8820768251
H        0.2187791622   -3.2111606941   -0.7953781738
H       -2.4395688582    1.1859468926    0.3836803522
H       -0.7880984132    2.5704950578   -1.2031355028
C       -0.6452072295    0.1125621101    1.0218329488
H       -0.9165067019   -0.5063893029    1.8882502672
13   
Frame written by nebterpolator, Wed Mar  2 21:50:42 2022
C        0.7180699467    0.1073632118    0.3032794349
C        1.0826898574   -1.1815004457   -0.3740230225
C        0.3129086440   -2.2755369583   -0.3712630848
C       -1.3870001254    1.0597021709    0.3165712502
C       -0.4866990487    1.7221479932   -0.6106433629
N        0.7127947221    1.2183940706   -0.6411925801
H        1.4912559565    0.3407911011    1.0504655094
H        2.0417885776   -1.1714309510   -0.8992679612
H        0.3819574038   -3.2905479046   -0.7458707698
H       -2.4292866052    1.3264361176    0.4614139673
H       -0.7483568772    2.5939682215   -1.2209147196
C       -0.6888598767    0.1048366022    0.9586769784
H       -1.0012625751   -0.5546232293    1.7727683607
13   
Frame written by nebterpolator, Wed Mar  2 21:50:42 2022
C        0.6483972425    0.0835953167    0.2973282899
C        1.0785925012   -1.2142706957   -0.3622277224
C        0.4245080594   -2.3505531995   -0.3079803595
C       -1.3987490325    1.1291146429    0.3406471814
C       -0.4703795498    1.7538297523   -0.6125607587
N        0.6886141214    1.1917338364   -0.6756297385
H        1.3933579009    0.3309098018    1.0738806583
H        2.0215288452   -1.1395391840   -0.9164208038
H        0.5563983417   -3.3576621815   -0.6828366767
H       -2.4150626455    1.4514962141    0.5368395216
H       -0.7045498392    2.6207759088   -1.2294916450
C       -0.7336122001    0.1003825362    0.8960211307
H       -1.0890437453   -0.5998127484    1.6424309228
