13
comment
C     1.36030  0.02560  0.00000
C     0.69710 -1.20200  0.00000
C    -0.69440 -1.21840  0.00000
C    -1.38950 -0.01290  0.00000
C    -0.67120  1.18340  0.00000
N     0.68160  1.19600  0.00000
H     2.45300  0.10830  0.00000
H     1.26650 -2.13650  0.00000
H    -1.23650 -2.16960  0.00000
H    -2.48370  0.00110  0.00000
H    -1.15690  2.16570  0.00000
C    -3.88194 -3.88194  3.88194
H    -3.47433 -2.88098  4.02345
