13   
Frame written by nebterpolator, Thu Mar  3 04:27:29 2022
C        1.5261120191    0.2823998020    0.6697659773
C        1.0972289682   -1.0098286500    0.4324461205
C       -0.1575940425   -1.4433720349   -0.1271523590
C       -1.2393358011    0.7884342166   -0.5032724649
C       -0.2744246816    1.6673626431   -0.0480740357
N        0.9612499246    1.4976022847    0.4779004187
H        2.5255510377    0.3608900613    1.1033706514
H        1.7990871818   -1.7951192913    0.7028276008
H       -0.2857686699   -2.5193594907   -0.2262905290
H       -2.1516602502    1.2454761228   -0.8790338708
H       -0.5457249603    2.7229459673   -0.1204472999
C       -1.1866370566   -0.6506783505   -0.5403412485
H       -2.0680836691   -1.1467532807   -0.9416989612
13   
Frame written by nebterpolator, Thu Mar  3 04:27:29 2022
C        1.5543988482    0.3005187934    0.5691912720
C        1.0681216268   -1.0384963537    0.4909311581
C       -0.0824902580   -1.4943532605   -0.1206410387
C       -1.2421028120    0.8094689199   -0.5591458523
C       -0.3032865672    1.6419281220    0.0222536005
N        0.9747018268    1.4668328940    0.4063243494
H        2.5991136644    0.3904321308    0.8871738333
H        1.7225445686   -1.7815928646    0.9250095662
H       -0.2794678100   -2.5753558472   -0.1285933552
H       -2.1518596918    1.3017102211   -0.9421737294
H       -0.6255259542    2.6724018849    0.1289843159
C       -1.1696184730   -0.5916202703   -0.6482300042
H       -2.0645289686   -1.1018743698   -1.0310841156
13   
Frame written by nebterpolator, Thu Mar  3 04:27:29 2022
C        1.5825894040    0.2969646682    0.4650252636
C        1.0536325566   -1.0420769477    0.5518641957
C       -0.0168242476   -1.5502752462   -0.1215463623
C       -1.2438205823    0.8389659617   -0.6193125799
C       -0.3288772817    1.6085559511    0.0901458246
N        0.9796569798    1.4515087262    0.3325669806
H        2.6569450526    0.3888051485    0.6697123473
H        1.6473157536   -1.7226987846    1.1514260909
H       -0.2784662326   -2.6171793536   -0.0356893507
H       -2.1392276350    1.3635065545   -0.9997645619
H       -0.6976345409    2.5926000371    0.3821017415
C       -1.1581835688   -0.5442783884   -0.7546022800
H       -2.0571056578   -1.0643983267   -1.1119273094
13   
Frame written by nebterpolator, Thu Mar  3 04:27:29 2022
C        1.5897752277    0.2643406288    0.3831823865
C        1.0609063268   -1.0196532412    0.6017191638
C        0.0819141580   -1.6225488541   -0.1311652448
C       -1.2513467391    0.8885545288   -0.6931085878
C       -0.3555559549    1.5592433707    0.1446825646
N        0.9681868490    1.4163975936    0.2769650355
H        2.6870508782    0.3542686306    0.4610041245
H        1.5799725816   -1.6028405008    1.3647664025
H       -0.2346104075   -2.6703752832    0.0352805944
H       -2.1152607821    1.4591005981   -1.0780134780
H       -0.7496788604    2.4722036292    0.6120152783
C       -1.1783894056   -0.4806638961   -0.8356126386
H       -2.0829638716   -1.0180272043   -1.1417156008
13   
Frame written by nebterpolator, Thu Mar  3 04:27:29 2022
C        1.5937217514    0.2477367895    0.3178042714
C        1.0667973376   -1.0215615337    0.6430258745
C        0.2125845580   -1.7318062795   -0.1364709627
C       -1.2604652496    0.9638285738   -0.7699469470
C       -0.3859286689    1.5025916598    0.1886177113
N        0.9478011535    1.3860600200    0.2321026332
H        2.6942028661    0.3332914589    0.2854742181
H        1.4938266730   -1.4767195565    1.5408304599
H       -0.1377087868   -2.7598454690    0.0672933425
H       -2.0730925707    1.5914757464   -1.1684025138
H       -0.7905315155    2.3258453003    0.8013854640
C       -1.2281035809   -0.4012812797   -0.8810711362
H       -2.1331039670   -0.9596154304   -1.1206424151
13   
Frame written by nebterpolator, Thu Mar  3 04:27:29 2022
C        1.5874136045    0.2311934573    0.2803004638
C        1.0718069393   -1.0361801011    0.6633964287
C        0.3784027725   -1.8545498311   -0.1610720171
C       -1.2740374033    1.0520290743   -0.8428920989
C       -0.4204846600    1.4515960741    0.2091011126
N        0.9186090375    1.3541212040    0.2022782055
H        2.6840979531    0.3180036794    0.1846644108
H        1.3806789405   -1.3706686002    1.6611618864
H        0.0304075925   -2.8802201398    0.0343129762
H       -2.0137673700    1.7371243686   -1.2762035142
H       -0.8217817728    2.2010964101    0.9151780580
C       -1.3102175131   -0.3088129966   -0.8608772313
H       -2.2111281207   -0.8947325990   -1.0093486804
13   
Frame written by nebterpolator, Thu Mar  3 04:27:29 2022
C        1.5718903857    0.2130923349    0.2689439952
C        1.0703186087   -1.0599298535    0.6565602893
C        0.5588785770   -1.9664082450   -0.2084207898
C       -1.2945783100    1.1307948901   -0.9074644785
C       -0.4547808607    1.4207283331    0.2089946809
N        0.8885687336    1.3261862632    0.1874357087
H        2.6669810625    0.3070263814    0.1620766795
H        1.2357200802   -1.3095202970    1.7157829342
H        0.2375642262   -3.0026722452   -0.0474359636
H       -1.9529629853    1.8523741401   -1.3994010250
H       -0.8439906130    2.1298366250    0.9592474467
C       -1.3988558201   -0.2104193951   -0.7759251654
H       -2.2847530848   -0.8310889320   -0.8203943121
13   
Frame written by nebterpolator, Thu Mar  3 04:27:29 2022
C        1.5520067862    0.1990808505    0.2617199591
C        1.0568224473   -1.0931239142    0.6352098406
C        0.7487416105   -2.0733513612   -0.2472241441
C       -1.3261527554    1.2045326529   -0.9630675747
C       -0.4870431245    1.3999585746    0.2017083798
N        0.8618110727    1.3066466842    0.1729308971
H        2.6472352130    0.2988541865    0.1701320765
H        1.0501710625   -1.2786465220    1.7225087102
H        0.4583440888   -3.1194819803   -0.1199819644
H       -1.9070488178    1.9400793630   -1.5190139505
H       -0.8590030533    2.0803287117    0.9817353070
C       -1.4718609244   -0.0993488073   -0.6739301412
H       -2.3240236055   -0.7655284384   -0.6227273954
13   
Frame written by nebterpolator, Thu Mar  3 04:27:29 2022
C        1.5286998673    0.1925552492    0.2488718364
C        1.0292560121   -1.1339887728    0.6110200021
C        0.9528431018   -2.1770893572   -0.2441968346
C       -1.3663669816    1.2834127857   -1.0052924722
C       -0.5192381503    1.3767056737    0.1970396589
N        0.8357861418    1.2936322224    0.1487788664
H        2.6232874457    0.2920253874    0.1711064129
H        0.8225424071   -1.2642974557    1.6862623438
H        0.6980882588   -3.2296595901   -0.1379038731
H       -1.8707781807    2.0216344037   -1.6211007616
H       -0.8674339383    2.0213475283    1.0113636421
C       -1.5326226761    0.0222179488   -0.5898383034
H       -2.3340633077   -0.6984960234   -0.4761105177
13   
Frame written by nebterpolator, Thu Mar  3 04:27:29 2022
C        1.5016867605    0.1901769305    0.2339353354
C        0.9957154036   -1.1752190866    0.5915040155
C        1.1642014451   -2.2624879562   -0.1782147776
C       -1.4063099106    1.3698381488   -1.0306625939
C       -0.5535629790    1.3431196369    0.1983937062
N        0.8043906851    1.2789198137    0.1142054700
H        2.5940509056    0.2851807890    0.1452727123
H        0.5825566543   -1.2627719736    1.6080340694
H        0.9566222230   -3.3195378498   -0.0728442040
H       -1.8295476204    2.1135192095   -1.6935058659
H       -0.8723286708    1.9351900290    1.0559680839
C       -1.5943457282    0.1389511906   -0.5466213922
H       -2.3431291681   -0.6348788819   -0.4254645590
13   
Frame written by nebterpolator, Thu Mar  3 04:27:29 2022
C        1.4653009612    0.1639449633    0.2205519146
C        0.9788875038   -1.1904810583    0.5768720061
C        1.3644030038   -2.3051531111   -0.0544519517
C       -1.4403214648    1.4613586297   -1.0388428273
C       -0.5927268301    1.2923784181    0.1988242773
N        0.7610285305    1.2404242404    0.0725753569
H        2.5574792850    0.2588626865    0.0937483656
H        0.3901710490   -1.2538455115    1.5068168801
H        1.2128895612   -3.3667816907    0.0832139922
H       -1.7789211186    2.2269300544   -1.7213170358
H       -0.8811078985    1.8143273875    1.1068836991
C       -1.6641087097    0.2364372007   -0.5577529097
H       -2.3729738727   -0.5784022089   -0.4871217673
13   
Frame written by nebterpolator, Thu Mar  3 04:27:29 2022
C        1.4346048653    0.1399772606    0.2008441402
C        0.9756804738   -1.2041123625    0.5754352898
C        1.5305462952   -2.3187147223    0.1027731506
C       -1.4643990372    1.5525261061   -1.0272796771
C       -0.6335946370    1.2270551608    0.1906223367
N        0.7139336931    1.1962962667    0.0238678643
H        2.5237969081    0.2408267055    0.0325121166
H        0.2546991627   -1.2584017449    1.4087265341
H        1.4310710438   -3.3775407886    0.2902178132
H       -1.7292095006    2.3613087123   -1.6880623681
H       -0.9018025344    1.6578715073    1.1524896593
C       -1.7266633714    0.3104179738   -0.6193834004
H       -2.4086633614   -0.5275100749   -0.6427634593
13   
Frame written by nebterpolator, Thu Mar  3 04:27:29 2022
C        1.4098850276    0.1144960554    0.1749425214
C        0.9837572593   -1.2135082744    0.5879303973
C        1.6588597083   -2.3103040856    0.2695850061
C       -1.4837798295    1.6374999563   -0.9951110799
C       -0.6752145927    1.1530707443    0.1664124106
N        0.6691140963    1.1479772784   -0.0304343416
H        2.4969692552    0.2248187948   -0.0276261202
H        0.1690520263   -1.2686567597    1.3304866746
H        1.5996539469   -3.3599204143    0.5134287969
H       -1.6952294587    2.5055087266   -1.5909971977
H       -0.9353119241    1.4768804164    1.1779564760
C       -1.7707410586    0.3686079859   -0.7161298844
H       -2.4270144563   -0.4764704240   -0.8604436592
13   
Frame written by nebterpolator, Thu Mar  3 04:27:29 2022
C        1.3881367138    0.0847877821    0.1479926639
C        0.9972886633   -1.2164979586    0.6119566754
C        1.7571682444   -2.2862394881    0.4336246773
C       -1.5037982049    1.7116644690   -0.9453792726
C       -0.7161842622    1.0776580610    0.1256955221
N        0.6286842840    1.0962045201   -0.0888888169
H        2.4791684996    0.2054811171   -0.0814016837
H        0.1137175431   -1.2805002409    1.2712949618
H        1.7265251263   -3.3236048319    0.7314963464
H       -1.6832767371    2.6429777411   -1.4415023496
H       -0.9777708576    1.2823085079    1.1764983242
C       -1.7939536546    0.4217527189   -0.8306492659
H       -2.4157053580   -0.4159923977   -1.1107377825
13   
Frame written by nebterpolator, Thu Mar  3 04:27:29 2022
C        1.3678038924    0.0490637865    0.1239990730
C        1.0135232490   -1.2122463882    0.6419136807
C        1.8366092935   -2.2495936446    0.5903489350
C       -1.5261395131    1.7725362978   -0.8855923173
C       -0.7550680075    1.0042295238    0.0693465644
N        0.5922731569    1.0390613448   -0.1531988694
H        2.4663228372    0.1815850834   -0.1211966596
H        0.0756497184   -1.2946480163    1.2213586518
H        1.8275304926   -3.2734580266    0.9396621500
H       -1.6909445738    2.7605776770   -1.2568669893
H       -1.0267468194    1.0786261656    1.1522057244
C       -1.8010857344    0.4787431441   -0.9514882729
H       -2.3797279920   -0.3344769473   -1.3704916707
13   
Frame written by nebterpolator, Thu Mar  3 04:27:29 2022
C        1.3512778912    0.0150860388    0.1056253353
C        1.0293402024   -1.2082860167    0.6742794482
C        1.9041074846   -2.2058660408    0.7384507555
C       -1.5507614616    1.8205651448   -0.8195154891
C       -0.7914340224    0.9332227343    0.0021461187
N        0.5607427120    0.9810318623   -0.2200424140
H        2.4560493253    0.1617293420   -0.1418320509
H        0.0475608367   -1.3211282991    1.1716333772
H        1.9142584286   -3.2146715155    1.1362018791
H       -1.7139919966    2.8515778885   -1.0465690826
H       -1.0818945948    0.8607663999    1.1013784687
C       -1.7972017264    0.5465037071   -1.0736140436
H       -2.3280530789   -0.2205312456   -1.6281423026
13   
Frame written by nebterpolator, Thu Mar  3 04:27:29 2022
C        1.3418887651   -0.0081125450    0.0946133729
C        1.0423861441   -1.2137162299    0.7063108828
C        1.9608543947   -2.1631290868    0.8745824147
C       -1.5797773137    1.8566952463   -0.7436199179
C       -0.8255723503    0.8641939265   -0.0675826548
N        0.5369458405    0.9308934898   -0.2785601131
H        2.4472224915    0.1557602587   -0.1394853592
H        0.0277401745   -1.3684279527    1.1183029691
H        1.9893527094   -3.1560384006    1.3137784539
H       -1.7536770416    2.9105647540   -0.8097289429
H       -1.1403029254    0.6236846850    1.0036819794
C       -1.7844153383    0.6311424726   -1.1929643024
H       -2.2626455505   -0.0635106178   -1.8793287825
13   
Frame written by nebterpolator, Thu Mar  3 04:27:29 2022
C        1.3378365495   -0.0219780200    0.0925414806
C        1.0527981094   -1.2291738670    0.7333136943
C        2.0058451652   -2.1259417122    0.9946535964
C       -1.6151308349    1.8789543295   -0.6563575580
C       -0.8557737487    0.7961582619   -0.1383095070
N        0.5206808826    0.8904865407   -0.3219570397
H        2.4395266470    0.1650168698   -0.1110598981
H        0.0172660565   -1.4323745109    1.0613866597
H        2.0506431933   -3.1045487003    1.4654627629
H       -1.8140628601    2.9283840382   -0.5488022086
H       -1.1973105251    0.3725274035    0.8501515740
C       -1.7617965785    0.7373828520   -1.3047041842
H       -2.1805220560    0.1451065149   -2.1163193724
13   
Frame written by nebterpolator, Thu Mar  3 04:27:29 2022
C        1.3374632228   -0.0275640574    0.1037352907
C        1.0626242122   -1.2547413917    0.7507286568
C        2.0357133207   -2.0975578374    1.0968958020
C       -1.6606677647    1.8805707153   -0.5593700657
C       -0.8791901228    0.7285642097   -0.2121986983
N        0.5138194674    0.8603815930   -0.3439683328
H        2.4321775581    0.1915219769   -0.0481580480
H        0.0167718785   -1.5105362118    0.9924145427
H        2.0940761928   -3.0663560313    1.5838575159
H       -1.9045015530    2.8866885291   -0.2720576811
H       -1.2461371198    0.1155762265    0.6355486730
C       -1.7271701768    0.8727293748   -1.4014778875
H       -2.0749791155    0.4207229044   -2.3259497676
13   
Frame written by nebterpolator, Thu Mar  3 04:27:29 2022
C        1.3408417813   -0.0197022036    0.1361980019
C        1.0733727286   -1.2901151038    0.7562678744
C        2.0491836009   -2.0877406722    1.1798421545
C       -1.7225154665    1.8546064453   -0.4557763458
C       -0.8883198023    0.6633343925   -0.2936079988
N        0.5157226319    0.8481696664   -0.3381481310
H        2.4210459159    0.2387712526    0.0608360363
H        0.0270609375   -1.6025950360    0.8957851418
H        2.1182163399   -3.0565279213    1.6612423189
H       -2.0394406273    2.7699765086    0.0107597321
H       -1.2699146349   -0.1362336548    0.3569588323
C       -1.6814089641    1.0414940175   -1.4773640882
H       -1.9438444409    0.7765623087   -2.4929935284
13   
Frame written by nebterpolator, Thu Mar  3 04:27:29 2022
C        1.3466637608    0.0104365167    0.2039185446
C        1.0887031059   -1.3381661652    0.7512374264
C        2.0460805097   -2.1084247330    1.2331244293
C       -1.8102835579    1.7871357684   -0.3547768344
C       -0.8749993102    0.6029607014   -0.3850023911
N        0.5268312114    0.8618775154   -0.2894318835
H        2.3972137680    0.3108406333    0.2325780041
H        0.0597001816   -1.7108276015    0.7539916598
H        2.1295115841   -3.0940141536    1.6733798591
H       -2.2375383520    2.5500609421    0.2786509460
H       -1.2378448381   -0.3549326315    0.0034783460
C       -1.6337275873    1.2507505790   -1.5172192544
H       -1.8003104760    1.2323026286   -2.5839288521
