13   
Frame written by nebterpolator, Thu Mar  3 17:12:15 2022
C        1.3118553965    0.3025645483    0.2420680501
C        0.6068016140   -1.0007437408   -0.1830377253
C       -0.6883432701   -0.4654887350   -0.8439833543
C       -1.0780816294    0.1914248105    0.4506992150
C       -0.5189778790    1.0592796455   -0.6927874810
N        0.8291126319    1.4230372465   -0.4714120611
H        2.3483758206    0.2894064774    0.5607696643
H        1.1233254710   -1.9344691093   -0.3753888304
H       -1.2958121827   -0.9367535784   -1.6085309573
H       -2.0520569287    0.3366788924    0.9044507954
H       -1.1651298397    1.7418607690   -1.2337022453
C        0.2167204484   -0.3451412793    1.1120381956
H        0.3622103476   -0.6616559464    2.1388167342
13   
Frame written by nebterpolator, Thu Mar  3 17:12:15 2022
C        1.3793251294    0.3523005348    0.1345621151
C        0.6312024164   -0.9606862269   -0.1708647032
C       -0.6340413297   -0.4495902581   -0.8639462360
C       -1.0749115746    0.2247639079    0.4992133724
C       -0.5067648096    1.0540674987   -0.7034476075
N        0.8488770178    1.4605375727   -0.4547376151
H        2.4287949302    0.3348373661    0.4431663894
H        1.1504731423   -1.9148480688   -0.3472784099
H       -1.2779499828   -1.0128512309   -1.5466912116
H       -2.0737167648    0.4155617108    0.9203440039
H       -1.1795513926    1.7425896471   -1.2357604362
C        0.0809801506   -0.4546504605    1.1442715561
H        0.2272830673   -0.7920319930    2.1811687826
13   
Frame written by nebterpolator, Thu Mar  3 17:12:15 2022
C        1.4450309609    0.4057673010    0.0327914161
C        0.6594973921   -0.9327242041   -0.1690771624
C       -0.5874644311   -0.4603419538   -0.8780411353
C       -1.0818281150    0.2717363195    0.5654421902
C       -0.4954726690    1.0513003322   -0.7054233037
N        0.8769250170    1.4952953555   -0.4464384116
H        2.4932883872    0.3931297448    0.3393192147
H        1.1797523507   -1.8899272908   -0.3265373564
H       -1.2489787941   -1.0886252242   -1.4800920870
H       -2.0865001676    0.5033633146    0.9498090847
H       -1.1774200095    1.7342387601   -1.2361139459
C       -0.0675868210   -0.5595245487    1.1643102758
H        0.0907568994   -0.9236879062    2.1900512208
13   
Frame written by nebterpolator, Thu Mar  3 17:12:15 2022
C        1.4924528820    0.4157870999   -0.0657189862
C        0.7167237661   -0.8837936121   -0.1753825942
C       -0.5376117933   -0.4810284407   -0.8730681043
C       -1.0943352737    0.3364370414    0.6464740349
C       -0.4924380547    1.0518739798   -0.6892350975
N        0.8920018787    1.5172797237   -0.4643572064
H        2.5461118628    0.4182020734    0.2417226208
H        1.2342294964   -1.8505634495   -0.3049058876
H       -1.1960373083   -1.1584767011   -1.4254646475
H       -2.1019266866    0.5977851637    0.9954117756
H       -1.1789378671    1.7217654584   -1.2302175989
C       -0.2288285892   -0.6411962368    1.1686696279
H       -0.0514043130   -1.0440721000    2.1760720634
13   
Frame written by nebterpolator, Thu Mar  3 17:12:15 2022
C        1.5452797937    0.4367073037   -0.1467805271
C        0.7754061570   -0.8545962617   -0.1907331088
C       -0.4940841714   -0.5172600887   -0.8460139231
C       -1.1016412124    0.3998231760    0.7249465409
C       -0.4958049284    1.0512914853   -0.6556433217
N        0.9132739074    1.5362283574   -0.4947225648
H        2.6030645561    0.4532814345    0.1495148667
H        1.2892340808   -1.8269677199   -0.2813966260
H       -1.1396017716   -1.2169014971   -1.3859618155
H       -2.1054752291    0.6947402855    1.0515296339
H       -1.1864107516    1.7028516145   -1.2140991577
C       -0.3804878882   -0.7000844086    1.1514031007
H       -0.2227525424   -1.1591136808    2.1379569026
13   
Frame written by nebterpolator, Thu Mar  3 17:12:15 2022
C        1.6083202039    0.4822180403   -0.2101467458
C        0.8185204968   -0.8593484130   -0.2086901878
C       -0.4553202205   -0.5725234786   -0.8034063662
C       -1.1011848485    0.4549076116    0.7924618384
C       -0.5022244004    1.0553044329   -0.6091820013
N        0.9393688391    1.5639046863   -0.5264720924
H        2.6636116841    0.5098853073    0.0639148780
H        1.3308557522   -1.8285555449   -0.2521510666
H       -1.0859866138   -1.2678644219   -1.3593198278
H       -2.0931698783    0.7882882618    1.1120428870
H       -1.1960670652    1.6842369636   -1.1890054851
C       -0.5132162213   -0.7411701537    1.1154459628
H       -0.4135077282   -1.2692832916    2.0745082067
13   
Frame written by nebterpolator, Thu Mar  3 17:12:15 2022
C        1.6746428745    0.5184450175   -0.2492866809
C        0.8927159174   -0.8728536234   -0.2218798484
C       -0.4560811899   -0.6318856424   -0.7665911217
C       -1.0953726497    0.4999187659    0.8442654218
C       -0.5198846289    1.0612018583   -0.5625233507
N        0.9708189412    1.5720164989   -0.5758813207
H        2.7201307807    0.5665751029    0.0070163154
H        1.4005525174   -1.8296407162   -0.2075322089
H       -1.0685760983   -1.3058587793   -1.3455286022
H       -2.0605505661    0.8780583111    1.1830715201
H       -1.2108195115    1.6776806524   -1.1531561151
C       -0.6296051286   -0.7687931785    1.0628352114
H       -0.6179712582   -1.3648642672    1.9851907800
13   
Frame written by nebterpolator, Thu Mar  3 17:12:15 2022
C        1.7284043547    0.5213583321   -0.2740509059
C        1.0019534917   -0.8711766923   -0.2365533949
C       -0.4872079756   -0.6885747798   -0.7333021352
C       -1.0879119294    0.5354020728    0.8829548000
C       -0.5442085466    1.0710756473   -0.5164683425
N        0.9999177613    1.5492367991   -0.6397601208
H        2.7644170973    0.5995688737   -0.0279626805
H        1.5045459106   -1.8106351840   -0.1468852620
H       -1.0793414162   -1.3337482018   -1.3394642157
H       -2.0162559158    0.9555083873    1.2604516999
H       -1.2274249689    1.6871837439   -1.1087809117
C       -0.7316531332   -0.7794925655    1.0020740484
H       -0.8252347298   -1.4357064327    1.8777474210
13   
Frame written by nebterpolator, Thu Mar  3 17:12:15 2022
C        1.7401555355    0.4756181801   -0.3178429725
C        1.0921112659   -0.8453151072   -0.2624967466
C       -0.4674138155   -0.7571375276   -0.6725605340
C       -1.0837767475    0.5743713417    0.9228009708
C       -0.5585845371    1.1030780911   -0.4547438729
N        0.9945936862    1.5192408967   -0.6931576260
H        2.7863950834    0.5820601538   -0.0968492217
H        1.6067675332   -1.7675276769   -0.0833399383
H       -1.0372917700   -1.3722183221   -1.3329884720
H       -1.9831897040    1.0169213022    1.3348756142
H       -1.2386591826    1.7142197518   -1.0581485906
C       -0.8277976456   -0.7677477387    0.9460711354
H       -1.0233097020   -1.4755633448    1.7683802544
13   
Frame written by nebterpolator, Thu Mar  3 17:12:15 2022
C        1.7061785010    0.4198978887   -0.3752649470
C        1.1050485414   -0.8348330598   -0.2877777168
C       -0.3652871101   -0.8410245706   -0.5967427347
C       -1.0772252323    0.6167846556    0.9567870522
C       -0.5559579056    1.1639314568   -0.3878408170
N        0.9516542671    1.5145892991   -0.7191538903
H        2.7810079361    0.5370944843   -0.2026757399
H        1.6585598429   -1.7395558831   -0.0454839437
H       -0.9141802221   -1.4362165586   -1.3243996101
H       -1.9622096699    1.0542039636    1.4021108246
H       -1.2427406021    1.7657195199   -1.0032362642
C       -0.9018930889   -0.7397855359    0.9015653234
H       -1.1829552574   -1.4808056600    1.6821124633
13   
Frame written by nebterpolator, Thu Mar  3 17:12:15 2022
C        1.6909076706    0.4098981968   -0.4129581598
C        1.1098913654   -0.8654098795   -0.3157373163
C       -0.3022384173   -0.9598264872   -0.5346278816
C       -1.0741716626    0.6495009177    0.9550252047
C       -0.5498495780    1.2330249112   -0.3284916494
N        0.9371982613    1.5090244241   -0.7369865441
H        2.7757198925    0.5310959101   -0.2757686419
H        1.7084751937   -1.7346718736   -0.0213732980
H       -0.8222640558   -1.5340886323   -1.3128679185
H       -1.9065226671    1.0798109503    1.4940948679
H       -1.2310794496    1.8594517744   -0.9274746705
C       -0.9847673492   -0.7136795825    0.8322748934
H       -1.3512992039   -1.4641306293    1.5848911142
13   
Frame written by nebterpolator, Thu Mar  3 17:12:15 2022
C        1.6884813891    0.4261834674   -0.4235896861
C        1.1341271854   -0.9112152719   -0.3327924689
C       -0.3004647231   -1.0720024245   -0.4953212299
C       -1.0986855865    0.6623197489    0.9054412641
C       -0.5449509188    1.2952504384   -0.2889408582
N        0.9433611149    1.4960791933   -0.7396573556
H        2.7689827844    0.5520365162   -0.3047374333
H        1.7661487921   -1.7400556729   -0.0085473812
H       -0.7821897703   -1.6498290352   -1.2891998137
H       -1.7958194115    1.0968549623    1.6059687226
H       -1.2014878412    1.9737964848   -0.8521966915
C       -1.0690695163   -0.6992833632    0.7472957364
H       -1.5084334982   -1.4301350436    1.4762771955
13   
Frame written by nebterpolator, Thu Mar  3 17:12:15 2022
C        1.6700620997    0.4062528462   -0.4214015094
C        1.1619306992   -0.9067163034   -0.3308824966
C       -0.3002699853   -1.1364452994   -0.4723640347
C       -1.1821122553    0.6663802230    0.8292718927
C       -0.5563034520    1.3410374748   -0.2762745637
N        0.9339901952    1.4831450479   -0.7263924985
H        2.7535310507    0.5390198940   -0.3130199528
H        1.8191528643   -1.7189675244   -0.0097115458
H       -0.7376744844   -1.7578881603   -1.2527361321
H       -1.6020606741    1.1128130221    1.7331941486
H       -1.1782909478    2.0618651339   -0.8162766956
C       -1.1464757647   -0.6919167324    0.6766979330
H       -1.6354793456   -1.3985796221    1.3798954547
13   
Frame written by nebterpolator, Thu Mar  3 17:12:15 2022
C        1.6380778249    0.3732977061   -0.4442626588
C        1.1731849707   -0.9097378332   -0.3419426961
C       -0.2665017341   -1.2137002867   -0.4120134506
C       -1.1978938802    0.6811058717    0.7906752801
C       -0.5320485459    1.4089142178   -0.2384364937
N        0.9076119899    1.4769452304   -0.7079261207
H        2.7290668756    0.5107529285   -0.3836913231
H        1.8736565228   -1.7055279931   -0.0614797359
H       -0.6739721803   -1.9182741411   -1.1385136872
H       -1.6097442883    1.1287122545    1.7083843684
H       -1.1260106260    2.1939177161   -0.7181678250
C       -1.1790236642   -0.6756288398    0.6346640941
H       -1.7364032650   -1.3507768313    1.3127102485
13   
Frame written by nebterpolator, Thu Mar  3 17:12:15 2022
C        1.6169641464    0.3676701523   -0.4623763461
C        1.1731697734   -0.9212794210   -0.3526472964
C       -0.2402300685   -1.2761751665   -0.3414875183
C       -1.1981068899    0.6920048599    0.7497521073
C       -0.4956066888    1.4651232266   -0.2029111786
N        0.8971338618    1.4782753528   -0.6802778005
H        2.7102109565    0.4999656529   -0.4665250214
H        1.9086244521   -1.7059771550   -0.1335356412
H       -0.6207332685   -2.0738588672   -0.9810881403
H       -1.6997585105    1.1395245829    1.6192926594
H       -1.0585855876    2.3138751114   -0.6091807017
C       -1.1857530157   -0.6669040042    0.6049963768
H       -1.8073291605   -1.3122443248    1.2559885010
13   
Frame written by nebterpolator, Thu Mar  3 17:12:15 2022
C        1.5989130452    0.3654107815   -0.4824019441
C        1.1662707780   -0.9273214503   -0.3581315585
C       -0.2076648313   -1.3212528165   -0.2679290138
C       -1.2050994239    0.7009865520    0.7046231776
C       -0.4620462670    1.5097544745   -0.1712184543
N        0.8919458333    1.4853994821   -0.6485079668
H        2.6913140506    0.4890223791   -0.5552693011
H        1.9277612873   -1.7063385847   -0.2073651496
H       -0.5560264639   -2.2094434324   -0.7979478617
H       -1.8036140666    1.1484267427    1.5082341578
H       -0.9929026866    2.4111773700   -0.5034356734
C       -1.1845777981   -0.6617158510    0.5819294166
H       -1.8642734570   -1.2841056469    1.1974201713
13   
Frame written by nebterpolator, Thu Mar  3 17:12:15 2022
C        1.5841455013    0.3641154528   -0.5049828652
C        1.1606087503   -0.9309015768   -0.3590817542
C       -0.1749881133   -1.3549495452   -0.1908893251
C       -1.2188750448    0.7081417905    0.6543939124
C       -0.4329768053    1.5448959216   -0.1413309240
N        0.8914378262    1.4940101462   -0.6159647876
H        2.6709825428    0.4795535943   -0.6466145420
H        1.9386842170   -1.7062003758   -0.2773414958
H       -0.4846284259   -2.3208200438   -0.5940710406
H       -1.9079792208    1.1547982205    1.3807529937
H       -0.9299746700    2.4896933478   -0.3988933168
C       -1.1820344701   -0.6588614362    0.5610538822
H       -1.9144020874   -1.2634754959    1.1329692631
13   
Frame written by nebterpolator, Thu Mar  3 17:12:15 2022
C        1.5724022428    0.3620656059   -0.5304348038
C        1.1610122136   -0.9336867665   -0.3563755861
C       -0.1463917566   -1.3808292384   -0.1106203620
C       -1.2382306473    0.7138438785    0.5978451418
C       -0.4095034468    1.5723641972   -0.1139227880
N        0.8938721225    1.5020284541   -0.5852924434
H        2.6483207623    0.4723606407   -0.7368039350
H        1.9457847484   -1.7054431886   -0.3411724037
H       -0.4098473875   -2.4047561684   -0.3708236623
H       -2.0061071018    1.1583168584    1.2389885162
H       -0.8701401291    2.5517525030   -0.2946606848
C       -1.1811504197   -0.6589362252    0.5402950751
H       -1.9600212008   -1.2490805506    1.0629779360
13   
Frame written by nebterpolator, Thu Mar  3 17:12:15 2022
C        1.5609416093    0.3585976227   -0.5590859576
C        1.1643952826   -0.9370022673   -0.3516493204
C       -0.1206796533   -1.4008920341   -0.0269666711
C       -1.2610467615    0.7187520296    0.5354285453
C       -0.3923099398    1.5945257329   -0.0901772636
N        0.8961806951    1.5093888902   -0.5585397243
H        2.6221492179    0.4670945476   -0.8247117707
H        1.9485208416   -1.7049045699   -0.3995069044
H       -0.3279394833   -2.4607347909   -0.1316047865
H       -2.0959393057    1.1588940818    1.0849252997
H       -0.8142155901    2.6003967965   -0.1927136515
C       -1.1813785523   -0.6634198043    0.5207169798
H       -1.9986783606   -1.2406962347    0.9938852253
13   
Frame written by nebterpolator, Thu Mar  3 17:12:15 2022
C        1.5479345915    0.3534058182   -0.5895683179
C        1.1683589675   -0.9429587765   -0.3450150873
C       -0.0964203228   -1.4186168680    0.0687564841
C       -1.2845217304    0.7238186007    0.4709351448
C       -0.3803368545    1.6162433086   -0.0677840808
N        0.8961470937    1.5172950013   -0.5339830550
H        2.5900277979    0.4636292932   -0.9153758834
H        1.9454643924   -1.7061324038   -0.4610855192
H       -0.2384748689   -2.4954832342    0.1108380438
H       -2.1805756440    1.1562843874    0.9158606951
H       -0.7614971671    2.6423542173   -0.1002453384
C       -1.1790738998   -0.6740787789    0.5097388508
H       -2.0270323556   -1.2357605653    0.9369280633
13   
Frame written by nebterpolator, Thu Mar  3 17:12:15 2022
C        1.5348642784    0.3456500851   -0.6179040600
C        1.1737607234   -0.9591985572   -0.3362297236
C       -0.0771302035   -1.4426645606    0.1892855113
C       -1.3053709349    0.7328232315    0.4113220772
C       -0.3748333053    1.6477135252   -0.0419390194
N        0.8918951021    1.5302174533   -0.5068801945
H        2.5464116681    0.4648680033   -1.0124057567
H        1.9328936696   -1.7109568903   -0.5384422558
H       -0.1450774496   -2.5187971166    0.3362074361
H       -2.2591542260    1.1498718485    0.7256742459
H       -0.7106593325    2.6868701717   -0.0314869532
C       -1.1699021564   -0.6977770935    0.5183381078
H       -2.0376978333   -1.2286201003    0.9044605850
